                                  SEAWAT Version 4
      U.S. GEOLOGICAL SURVEY MODULAR FINITE-DIFFERENCE GROUND-WATER FLOW MODEL
                           VERSION 4.00.05 10/19/2012


 This model run combines GLOBAL and LIST output into this single file.

 GLOBAL LISTING FILE: imod-wq_tmp/henry.list
                         UNIT   10

 OPENING imod-wq_tmp/henry.bas6
 FILE TYPE:BAS6   UNIT   11   STATUS:OLD    
 FORMAT:FORMATTED              ACCESS:SEQUENTIAL          

 OPENING imod-wq_tmp/henry.dis
 FILE TYPE:DIS   UNIT   15   STATUS:OLD    
 FORMAT:FORMATTED              ACCESS:SEQUENTIAL          

 OPENING imod-wq_tmp/henry.lpf
 FILE TYPE:LPF   UNIT   20   STATUS:OLD    
 FORMAT:FORMATTED              ACCESS:SEQUENTIAL          

 OPENING imod-wq_tmp/henry.oc
 FILE TYPE:OC   UNIT   21   STATUS:OLD    
 FORMAT:FORMATTED              ACCESS:SEQUENTIAL          

 OPENING imod-wq_tmp/henry.pcg
 FILE TYPE:PCG   UNIT   22   STATUS:OLD    
 FORMAT:FORMATTED              ACCESS:SEQUENTIAL          

 OPENING imod-wq_tmp/henry.vdf
 FILE TYPE:VDF   UNIT   26   STATUS:OLD    
 FORMAT:FORMATTED              ACCESS:SEQUENTIAL          

 OPENING imod-wq_tmp/henry.wel
 FILE TYPE:WEL   UNIT   27   STATUS:OLD    
 FORMAT:FORMATTED              ACCESS:SEQUENTIAL          

 OPENING imod-wq_tmp/henry.adv
 FILE TYPE:ADV   UNIT   29   STATUS:OLD    
 FORMAT:FORMATTED              ACCESS:SEQUENTIAL          

 OPENING imod-wq_tmp/henry.btn
 FILE TYPE:BTN   UNIT   30   STATUS:OLD    
 FORMAT:FORMATTED              ACCESS:SEQUENTIAL          

 OPENING imod-wq_tmp/henry.dsp
 FILE TYPE:DSP   UNIT   31   STATUS:OLD    
 FORMAT:FORMATTED              ACCESS:SEQUENTIAL          

 OPENING imod-wq_tmp/henry.gcg
 FILE TYPE:GCG   UNIT   33   STATUS:OLD    
 FORMAT:FORMATTED              ACCESS:SEQUENTIAL          

 OPENING imod-wq_tmp/henry.ssm
 FILE TYPE:SSM   UNIT   35   STATUS:OLD    
 FORMAT:FORMATTED              ACCESS:SEQUENTIAL          

 OPENING imod-wq_tmp/henry.met
 FILE TYPE:MET   UNIT   39   STATUS:OLD    
 FORMAT:FORMATTED              ACCESS:SEQUENTIAL          

 OPENING btn\icbund_l1.idf
 FILE TYPE:DATA(IDF)   UNIT   42   STATUS:UNKNOWN
 FORMAT:FORMATTED              ACCESS:SEQUENTIAL          

 OPENING btn\icbund_l2.idf
 FILE TYPE:DATA(IDF)   UNIT   44   STATUS:UNKNOWN
 FORMAT:FORMATTED              ACCESS:SEQUENTIAL          

 OPENING btn\icbund_l3.idf
 FILE TYPE:DATA(IDF)   UNIT   46   STATUS:UNKNOWN
 FORMAT:FORMATTED              ACCESS:SEQUENTIAL          

 OPENING btn\icbund_l4.idf
 FILE TYPE:DATA(IDF)   UNIT   48   STATUS:UNKNOWN
 FORMAT:FORMATTED              ACCESS:SEQUENTIAL          

 OPENING btn\icbund_l5.idf
 FILE TYPE:DATA(IDF)   UNIT   50   STATUS:UNKNOWN
 FORMAT:FORMATTED              ACCESS:SEQUENTIAL          

 OPENING btn\icbund_l6.idf
 FILE TYPE:DATA(IDF)   UNIT   52   STATUS:UNKNOWN
 FORMAT:FORMATTED              ACCESS:SEQUENTIAL          

 OPENING btn\icbund_l7.idf
 FILE TYPE:DATA(IDF)   UNIT   54   STATUS:UNKNOWN
 FORMAT:FORMATTED              ACCESS:SEQUENTIAL          

 OPENING btn\icbund_l8.idf
 FILE TYPE:DATA(IDF)   UNIT   56   STATUS:UNKNOWN
 FORMAT:FORMATTED              ACCESS:SEQUENTIAL          

 OPENING btn\icbund_l9.idf
 FILE TYPE:DATA(IDF)   UNIT   58   STATUS:UNKNOWN
 FORMAT:FORMATTED              ACCESS:SEQUENTIAL          

 OPENING btn\icbund_l10.idf
 FILE TYPE:DATA(IDF)   UNIT   60   STATUS:UNKNOWN
 FORMAT:FORMATTED              ACCESS:SEQUENTIAL          

 OPENING btn\icbund_l11.idf
 FILE TYPE:DATA(IDF)   UNIT   61   STATUS:UNKNOWN
 FORMAT:FORMATTED              ACCESS:SEQUENTIAL          

 OPENING btn\icbund_l12.idf
 FILE TYPE:DATA(IDF)   UNIT   62   STATUS:UNKNOWN
 FORMAT:FORMATTED              ACCESS:SEQUENTIAL          

 OPENING btn\icbund_l13.idf
 FILE TYPE:DATA(IDF)   UNIT   63   STATUS:UNKNOWN
 FORMAT:FORMATTED              ACCESS:SEQUENTIAL          

 OPENING btn\icbund_l14.idf
 FILE TYPE:DATA(IDF)   UNIT   64   STATUS:UNKNOWN
 FORMAT:FORMATTED              ACCESS:SEQUENTIAL          

 OPENING btn\icbund_l15.idf
 FILE TYPE:DATA(IDF)   UNIT   65   STATUS:UNKNOWN
 FORMAT:FORMATTED              ACCESS:SEQUENTIAL          

 OPENING btn\icbund_l16.idf
 FILE TYPE:DATA(IDF)   UNIT   66   STATUS:UNKNOWN
 FORMAT:FORMATTED              ACCESS:SEQUENTIAL          

 OPENING btn\icbund_l17.idf
 FILE TYPE:DATA(IDF)   UNIT   67   STATUS:UNKNOWN
 FORMAT:FORMATTED              ACCESS:SEQUENTIAL          

 OPENING btn\icbund_l18.idf
 FILE TYPE:DATA(IDF)   UNIT   68   STATUS:UNKNOWN
 FORMAT:FORMATTED              ACCESS:SEQUENTIAL          

 OPENING btn\icbund_l19.idf
 FILE TYPE:DATA(IDF)   UNIT   69   STATUS:UNKNOWN
 FORMAT:FORMATTED              ACCESS:SEQUENTIAL          

 OPENING btn\icbund_l20.idf
 FILE TYPE:DATA(IDF)   UNIT   70   STATUS:UNKNOWN
 FORMAT:FORMATTED              ACCESS:SEQUENTIAL          

 OPENING btn\icbund_l21.idf
 FILE TYPE:DATA(IDF)   UNIT   71   STATUS:UNKNOWN
 FORMAT:FORMATTED              ACCESS:SEQUENTIAL          

 OPENING btn\icbund_l22.idf
 FILE TYPE:DATA(IDF)   UNIT   72   STATUS:UNKNOWN
 FORMAT:FORMATTED              ACCESS:SEQUENTIAL          

 OPENING btn\icbund_l23.idf
 FILE TYPE:DATA(IDF)   UNIT   73   STATUS:UNKNOWN
 FORMAT:FORMATTED              ACCESS:SEQUENTIAL          

 OPENING btn\icbund_l24.idf
 FILE TYPE:DATA(IDF)   UNIT   74   STATUS:UNKNOWN
 FORMAT:FORMATTED              ACCESS:SEQUENTIAL          

 OPENING btn\icbund_l25.idf
 FILE TYPE:DATA(IDF)   UNIT   75   STATUS:UNKNOWN
 FORMAT:FORMATTED              ACCESS:SEQUENTIAL          

 OPENING btn\icbund_l26.idf
 FILE TYPE:DATA(IDF)   UNIT   76   STATUS:UNKNOWN
 FORMAT:FORMATTED              ACCESS:SEQUENTIAL          

 OPENING btn\icbund_l27.idf
 FILE TYPE:DATA(IDF)   UNIT   77   STATUS:UNKNOWN
 FORMAT:FORMATTED              ACCESS:SEQUENTIAL          

 OPENING btn\icbund_l28.idf
 FILE TYPE:DATA(IDF)   UNIT   78   STATUS:UNKNOWN
 FORMAT:FORMATTED              ACCESS:SEQUENTIAL          

 OPENING btn\icbund_l29.idf
 FILE TYPE:DATA(IDF)   UNIT   79   STATUS:UNKNOWN
 FORMAT:FORMATTED              ACCESS:SEQUENTIAL          

 OPENING btn\icbund_l30.idf
 FILE TYPE:DATA(IDF)   UNIT   80   STATUS:UNKNOWN
 FORMAT:FORMATTED              ACCESS:SEQUENTIAL          

 OPENING btn\icbund_l31.idf
 FILE TYPE:DATA(IDF)   UNIT   81   STATUS:UNKNOWN
 FORMAT:FORMATTED              ACCESS:SEQUENTIAL          

 OPENING btn\icbund_l32.idf
 FILE TYPE:DATA(IDF)   UNIT   82   STATUS:UNKNOWN
 FORMAT:FORMATTED              ACCESS:SEQUENTIAL          

 OPENING btn\icbund_l33.idf
 FILE TYPE:DATA(IDF)   UNIT   83   STATUS:UNKNOWN
 FORMAT:FORMATTED              ACCESS:SEQUENTIAL          

 OPENING btn\icbund_l34.idf
 FILE TYPE:DATA(IDF)   UNIT   84   STATUS:UNKNOWN
 FORMAT:FORMATTED              ACCESS:SEQUENTIAL          

 OPENING btn\icbund_l35.idf
 FILE TYPE:DATA(IDF)   UNIT   85   STATUS:UNKNOWN
 FORMAT:FORMATTED              ACCESS:SEQUENTIAL          

 OPENING btn\icbund_l36.idf
 FILE TYPE:DATA(IDF)   UNIT   86   STATUS:UNKNOWN
 FORMAT:FORMATTED              ACCESS:SEQUENTIAL          

 OPENING btn\icbund_l37.idf
 FILE TYPE:DATA(IDF)   UNIT   87   STATUS:UNKNOWN
 FORMAT:FORMATTED              ACCESS:SEQUENTIAL          

 OPENING btn\icbund_l38.idf
 FILE TYPE:DATA(IDF)   UNIT   88   STATUS:UNKNOWN
 FORMAT:FORMATTED              ACCESS:SEQUENTIAL          

 OPENING btn\icbund_l39.idf
 FILE TYPE:DATA(IDF)   UNIT   89   STATUS:UNKNOWN
 FORMAT:FORMATTED              ACCESS:SEQUENTIAL          

 OPENING btn\icbund_l40.idf
 FILE TYPE:DATA(IDF)   UNIT   90   STATUS:UNKNOWN
 FORMAT:FORMATTED              ACCESS:SEQUENTIAL          

 OPENING btn\icbund_l41.idf
 FILE TYPE:DATA(IDF)   UNIT   91   STATUS:UNKNOWN
 FORMAT:FORMATTED              ACCESS:SEQUENTIAL          

 OPENING btn\icbund_l42.idf
 FILE TYPE:DATA(IDF)   UNIT   92   STATUS:UNKNOWN
 FORMAT:FORMATTED              ACCESS:SEQUENTIAL          

 OPENING btn\icbund_l43.idf
 FILE TYPE:DATA(IDF)   UNIT   93   STATUS:UNKNOWN
 FORMAT:FORMATTED              ACCESS:SEQUENTIAL          

 OPENING btn\icbund_l44.idf
 FILE TYPE:DATA(IDF)   UNIT   94   STATUS:UNKNOWN
 FORMAT:FORMATTED              ACCESS:SEQUENTIAL          

 OPENING btn\icbund_l45.idf
 FILE TYPE:DATA(IDF)   UNIT   95   STATUS:UNKNOWN
 FORMAT:FORMATTED              ACCESS:SEQUENTIAL          

 OPENING btn\icbund_l46.idf
 FILE TYPE:DATA(IDF)   UNIT   96   STATUS:UNKNOWN
 FORMAT:FORMATTED              ACCESS:SEQUENTIAL          

 OPENING btn\icbund_l47.idf
 FILE TYPE:DATA(IDF)   UNIT   97   STATUS:UNKNOWN
 FORMAT:FORMATTED              ACCESS:SEQUENTIAL          

 OPENING btn\icbund_l48.idf
 FILE TYPE:DATA(IDF)   UNIT   98   STATUS:UNKNOWN
 FORMAT:FORMATTED              ACCESS:SEQUENTIAL          

 OPENING btn\icbund_l49.idf
 FILE TYPE:DATA(IDF)   UNIT  104   STATUS:UNKNOWN
 FORMAT:FORMATTED              ACCESS:SEQUENTIAL          

 OPENING btn\icbund_l50.idf
 FILE TYPE:DATA(IDF)   UNIT  105   STATUS:UNKNOWN
 FORMAT:FORMATTED              ACCESS:SEQUENTIAL          

 OPENING btn\starting_concentration_l1.idf
 FILE TYPE:DATA(IDF)   UNIT  106   STATUS:UNKNOWN
 FORMAT:FORMATTED              ACCESS:SEQUENTIAL          

 OPENING btn\starting_concentration_l2.idf
 FILE TYPE:DATA(IDF)   UNIT  107   STATUS:UNKNOWN
 FORMAT:FORMATTED              ACCESS:SEQUENTIAL          

 OPENING btn\starting_concentration_l3.idf
 FILE TYPE:DATA(IDF)   UNIT  108   STATUS:UNKNOWN
 FORMAT:FORMATTED              ACCESS:SEQUENTIAL          

 OPENING btn\starting_concentration_l4.idf
 FILE TYPE:DATA(IDF)   UNIT  109   STATUS:UNKNOWN
 FORMAT:FORMATTED              ACCESS:SEQUENTIAL          

 OPENING btn\starting_concentration_l5.idf
 FILE TYPE:DATA(IDF)   UNIT  110   STATUS:UNKNOWN
 FORMAT:FORMATTED              ACCESS:SEQUENTIAL          

 OPENING btn\starting_concentration_l6.idf
 FILE TYPE:DATA(IDF)   UNIT  111   STATUS:UNKNOWN
 FORMAT:FORMATTED              ACCESS:SEQUENTIAL          

 OPENING btn\starting_concentration_l7.idf
 FILE TYPE:DATA(IDF)   UNIT  112   STATUS:UNKNOWN
 FORMAT:FORMATTED              ACCESS:SEQUENTIAL          

 OPENING btn\starting_concentration_l8.idf
 FILE TYPE:DATA(IDF)   UNIT  113   STATUS:UNKNOWN
 FORMAT:FORMATTED              ACCESS:SEQUENTIAL          

 OPENING btn\starting_concentration_l9.idf
 FILE TYPE:DATA(IDF)   UNIT  114   STATUS:UNKNOWN
 FORMAT:FORMATTED              ACCESS:SEQUENTIAL          

 OPENING btn\starting_concentration_l10.idf
 FILE TYPE:DATA(IDF)   UNIT  115   STATUS:UNKNOWN
 FORMAT:FORMATTED              ACCESS:SEQUENTIAL          

 OPENING btn\starting_concentration_l11.idf
 FILE TYPE:DATA(IDF)   UNIT  116   STATUS:UNKNOWN
 FORMAT:FORMATTED              ACCESS:SEQUENTIAL          

 OPENING btn\starting_concentration_l12.idf
 FILE TYPE:DATA(IDF)   UNIT  117   STATUS:UNKNOWN
 FORMAT:FORMATTED              ACCESS:SEQUENTIAL          

 OPENING btn\starting_concentration_l13.idf
 FILE TYPE:DATA(IDF)   UNIT  118   STATUS:UNKNOWN
 FORMAT:FORMATTED              ACCESS:SEQUENTIAL          

 OPENING btn\starting_concentration_l14.idf
 FILE TYPE:DATA(IDF)   UNIT  119   STATUS:UNKNOWN
 FORMAT:FORMATTED              ACCESS:SEQUENTIAL          

 OPENING btn\starting_concentration_l15.idf
 FILE TYPE:DATA(IDF)   UNIT  120   STATUS:UNKNOWN
 FORMAT:FORMATTED              ACCESS:SEQUENTIAL          

 OPENING btn\starting_concentration_l16.idf
 FILE TYPE:DATA(IDF)   UNIT  121   STATUS:UNKNOWN
 FORMAT:FORMATTED              ACCESS:SEQUENTIAL          

 OPENING btn\starting_concentration_l17.idf
 FILE TYPE:DATA(IDF)   UNIT  122   STATUS:UNKNOWN
 FORMAT:FORMATTED              ACCESS:SEQUENTIAL          

 OPENING btn\starting_concentration_l18.idf
 FILE TYPE:DATA(IDF)   UNIT  123   STATUS:UNKNOWN
 FORMAT:FORMATTED              ACCESS:SEQUENTIAL          

 OPENING btn\starting_concentration_l19.idf
 FILE TYPE:DATA(IDF)   UNIT  124   STATUS:UNKNOWN
 FORMAT:FORMATTED              ACCESS:SEQUENTIAL          

 OPENING btn\starting_concentration_l20.idf
 FILE TYPE:DATA(IDF)   UNIT  125   STATUS:UNKNOWN
 FORMAT:FORMATTED              ACCESS:SEQUENTIAL          

 OPENING btn\starting_concentration_l21.idf
 FILE TYPE:DATA(IDF)   UNIT  126   STATUS:UNKNOWN
 FORMAT:FORMATTED              ACCESS:SEQUENTIAL          

 OPENING btn\starting_concentration_l22.idf
 FILE TYPE:DATA(IDF)   UNIT  127   STATUS:UNKNOWN
 FORMAT:FORMATTED              ACCESS:SEQUENTIAL          

 OPENING btn\starting_concentration_l23.idf
 FILE TYPE:DATA(IDF)   UNIT  128   STATUS:UNKNOWN
 FORMAT:FORMATTED              ACCESS:SEQUENTIAL          

 OPENING btn\starting_concentration_l24.idf
 FILE TYPE:DATA(IDF)   UNIT  129   STATUS:UNKNOWN
 FORMAT:FORMATTED              ACCESS:SEQUENTIAL          

 OPENING btn\starting_concentration_l25.idf
 FILE TYPE:DATA(IDF)   UNIT  130   STATUS:UNKNOWN
 FORMAT:FORMATTED              ACCESS:SEQUENTIAL          

 OPENING btn\starting_concentration_l26.idf
 FILE TYPE:DATA(IDF)   UNIT  131   STATUS:UNKNOWN
 FORMAT:FORMATTED              ACCESS:SEQUENTIAL          

 OPENING btn\starting_concentration_l27.idf
 FILE TYPE:DATA(IDF)   UNIT  132   STATUS:UNKNOWN
 FORMAT:FORMATTED              ACCESS:SEQUENTIAL          

 OPENING btn\starting_concentration_l28.idf
 FILE TYPE:DATA(IDF)   UNIT  133   STATUS:UNKNOWN
 FORMAT:FORMATTED              ACCESS:SEQUENTIAL          

 OPENING btn\starting_concentration_l29.idf
 FILE TYPE:DATA(IDF)   UNIT  134   STATUS:UNKNOWN
 FORMAT:FORMATTED              ACCESS:SEQUENTIAL          

 OPENING btn\starting_concentration_l30.idf
 FILE TYPE:DATA(IDF)   UNIT  135   STATUS:UNKNOWN
 FORMAT:FORMATTED              ACCESS:SEQUENTIAL          

 OPENING btn\starting_concentration_l31.idf
 FILE TYPE:DATA(IDF)   UNIT  136   STATUS:UNKNOWN
 FORMAT:FORMATTED              ACCESS:SEQUENTIAL          

 OPENING btn\starting_concentration_l32.idf
 FILE TYPE:DATA(IDF)   UNIT  137   STATUS:UNKNOWN
 FORMAT:FORMATTED              ACCESS:SEQUENTIAL          

 OPENING btn\starting_concentration_l33.idf
 FILE TYPE:DATA(IDF)   UNIT  138   STATUS:UNKNOWN
 FORMAT:FORMATTED              ACCESS:SEQUENTIAL          

 OPENING btn\starting_concentration_l34.idf
 FILE TYPE:DATA(IDF)   UNIT  139   STATUS:UNKNOWN
 FORMAT:FORMATTED              ACCESS:SEQUENTIAL          

 OPENING btn\starting_concentration_l35.idf
 FILE TYPE:DATA(IDF)   UNIT  140   STATUS:UNKNOWN
 FORMAT:FORMATTED              ACCESS:SEQUENTIAL          

 OPENING btn\starting_concentration_l36.idf
 FILE TYPE:DATA(IDF)   UNIT  141   STATUS:UNKNOWN
 FORMAT:FORMATTED              ACCESS:SEQUENTIAL          

 OPENING btn\starting_concentration_l37.idf
 FILE TYPE:DATA(IDF)   UNIT  142   STATUS:UNKNOWN
 FORMAT:FORMATTED              ACCESS:SEQUENTIAL          

 OPENING btn\starting_concentration_l38.idf
 FILE TYPE:DATA(IDF)   UNIT  143   STATUS:UNKNOWN
 FORMAT:FORMATTED              ACCESS:SEQUENTIAL          

 OPENING btn\starting_concentration_l39.idf
 FILE TYPE:DATA(IDF)   UNIT  144   STATUS:UNKNOWN
 FORMAT:FORMATTED              ACCESS:SEQUENTIAL          

 OPENING btn\starting_concentration_l40.idf
 FILE TYPE:DATA(IDF)   UNIT  145   STATUS:UNKNOWN
 FORMAT:FORMATTED              ACCESS:SEQUENTIAL          

 OPENING btn\starting_concentration_l41.idf
 FILE TYPE:DATA(IDF)   UNIT  146   STATUS:UNKNOWN
 FORMAT:FORMATTED              ACCESS:SEQUENTIAL          

 OPENING btn\starting_concentration_l42.idf
 FILE TYPE:DATA(IDF)   UNIT  147   STATUS:UNKNOWN
 FORMAT:FORMATTED              ACCESS:SEQUENTIAL          

 OPENING btn\starting_concentration_l43.idf
 FILE TYPE:DATA(IDF)   UNIT  148   STATUS:UNKNOWN
 FORMAT:FORMATTED              ACCESS:SEQUENTIAL          

 OPENING btn\starting_concentration_l44.idf
 FILE TYPE:DATA(IDF)   UNIT  149   STATUS:UNKNOWN
 FORMAT:FORMATTED              ACCESS:SEQUENTIAL          

 OPENING btn\starting_concentration_l45.idf
 FILE TYPE:DATA(IDF)   UNIT  150   STATUS:UNKNOWN
 FORMAT:FORMATTED              ACCESS:SEQUENTIAL          

 OPENING btn\starting_concentration_l46.idf
 FILE TYPE:DATA(IDF)   UNIT  151   STATUS:UNKNOWN
 FORMAT:FORMATTED              ACCESS:SEQUENTIAL          

 OPENING btn\starting_concentration_l47.idf
 FILE TYPE:DATA(IDF)   UNIT  152   STATUS:UNKNOWN
 FORMAT:FORMATTED              ACCESS:SEQUENTIAL          

 OPENING btn\starting_concentration_l48.idf
 FILE TYPE:DATA(IDF)   UNIT  153   STATUS:UNKNOWN
 FORMAT:FORMATTED              ACCESS:SEQUENTIAL          

 OPENING btn\starting_concentration_l49.idf
 FILE TYPE:DATA(IDF)   UNIT  154   STATUS:UNKNOWN
 FORMAT:FORMATTED              ACCESS:SEQUENTIAL          

 OPENING btn\starting_concentration_l50.idf
 FILE TYPE:DATA(IDF)   UNIT  155   STATUS:UNKNOWN
 FORMAT:FORMATTED              ACCESS:SEQUENTIAL          

 OPENING bas\ibound_l1.idf
 FILE TYPE:DATA(IDF)   UNIT  156   STATUS:UNKNOWN
 FORMAT:FORMATTED              ACCESS:SEQUENTIAL          

 OPENING bas\ibound_l2.idf
 FILE TYPE:DATA(IDF)   UNIT  157   STATUS:UNKNOWN
 FORMAT:FORMATTED              ACCESS:SEQUENTIAL          

 OPENING bas\ibound_l3.idf
 FILE TYPE:DATA(IDF)   UNIT  158   STATUS:UNKNOWN
 FORMAT:FORMATTED              ACCESS:SEQUENTIAL          

 OPENING bas\ibound_l4.idf
 FILE TYPE:DATA(IDF)   UNIT  159   STATUS:UNKNOWN
 FORMAT:FORMATTED              ACCESS:SEQUENTIAL          

 OPENING bas\ibound_l5.idf
 FILE TYPE:DATA(IDF)   UNIT  160   STATUS:UNKNOWN
 FORMAT:FORMATTED              ACCESS:SEQUENTIAL          

 OPENING bas\ibound_l6.idf
 FILE TYPE:DATA(IDF)   UNIT  161   STATUS:UNKNOWN
 FORMAT:FORMATTED              ACCESS:SEQUENTIAL          

 OPENING bas\ibound_l7.idf
 FILE TYPE:DATA(IDF)   UNIT  162   STATUS:UNKNOWN
 FORMAT:FORMATTED              ACCESS:SEQUENTIAL          

 OPENING bas\ibound_l8.idf
 FILE TYPE:DATA(IDF)   UNIT  163   STATUS:UNKNOWN
 FORMAT:FORMATTED              ACCESS:SEQUENTIAL          

 OPENING bas\ibound_l9.idf
 FILE TYPE:DATA(IDF)   UNIT  164   STATUS:UNKNOWN
 FORMAT:FORMATTED              ACCESS:SEQUENTIAL          

 OPENING bas\ibound_l10.idf
 FILE TYPE:DATA(IDF)   UNIT  165   STATUS:UNKNOWN
 FORMAT:FORMATTED              ACCESS:SEQUENTIAL          

 OPENING bas\ibound_l11.idf
 FILE TYPE:DATA(IDF)   UNIT  166   STATUS:UNKNOWN
 FORMAT:FORMATTED              ACCESS:SEQUENTIAL          

 OPENING bas\ibound_l12.idf
 FILE TYPE:DATA(IDF)   UNIT  167   STATUS:UNKNOWN
 FORMAT:FORMATTED              ACCESS:SEQUENTIAL          

 OPENING bas\ibound_l13.idf
 FILE TYPE:DATA(IDF)   UNIT  168   STATUS:UNKNOWN
 FORMAT:FORMATTED              ACCESS:SEQUENTIAL          

 OPENING bas\ibound_l14.idf
 FILE TYPE:DATA(IDF)   UNIT  169   STATUS:UNKNOWN
 FORMAT:FORMATTED              ACCESS:SEQUENTIAL          

 OPENING bas\ibound_l15.idf
 FILE TYPE:DATA(IDF)   UNIT  170   STATUS:UNKNOWN
 FORMAT:FORMATTED              ACCESS:SEQUENTIAL          

 OPENING bas\ibound_l16.idf
 FILE TYPE:DATA(IDF)   UNIT  171   STATUS:UNKNOWN
 FORMAT:FORMATTED              ACCESS:SEQUENTIAL          

 OPENING bas\ibound_l17.idf
 FILE TYPE:DATA(IDF)   UNIT  172   STATUS:UNKNOWN
 FORMAT:FORMATTED              ACCESS:SEQUENTIAL          

 OPENING bas\ibound_l18.idf
 FILE TYPE:DATA(IDF)   UNIT  173   STATUS:UNKNOWN
 FORMAT:FORMATTED              ACCESS:SEQUENTIAL          

 OPENING bas\ibound_l19.idf
 FILE TYPE:DATA(IDF)   UNIT  174   STATUS:UNKNOWN
 FORMAT:FORMATTED              ACCESS:SEQUENTIAL          

 OPENING bas\ibound_l20.idf
 FILE TYPE:DATA(IDF)   UNIT  175   STATUS:UNKNOWN
 FORMAT:FORMATTED              ACCESS:SEQUENTIAL          

 OPENING bas\ibound_l21.idf
 FILE TYPE:DATA(IDF)   UNIT  176   STATUS:UNKNOWN
 FORMAT:FORMATTED              ACCESS:SEQUENTIAL          

 OPENING bas\ibound_l22.idf
 FILE TYPE:DATA(IDF)   UNIT  177   STATUS:UNKNOWN
 FORMAT:FORMATTED              ACCESS:SEQUENTIAL          

 OPENING bas\ibound_l23.idf
 FILE TYPE:DATA(IDF)   UNIT  178   STATUS:UNKNOWN
 FORMAT:FORMATTED              ACCESS:SEQUENTIAL          

 OPENING bas\ibound_l24.idf
 FILE TYPE:DATA(IDF)   UNIT  179   STATUS:UNKNOWN
 FORMAT:FORMATTED              ACCESS:SEQUENTIAL          

 OPENING bas\ibound_l25.idf
 FILE TYPE:DATA(IDF)   UNIT  180   STATUS:UNKNOWN
 FORMAT:FORMATTED              ACCESS:SEQUENTIAL          

 OPENING bas\ibound_l26.idf
 FILE TYPE:DATA(IDF)   UNIT  181   STATUS:UNKNOWN
 FORMAT:FORMATTED              ACCESS:SEQUENTIAL          

 OPENING bas\ibound_l27.idf
 FILE TYPE:DATA(IDF)   UNIT  182   STATUS:UNKNOWN
 FORMAT:FORMATTED              ACCESS:SEQUENTIAL          

 OPENING bas\ibound_l28.idf
 FILE TYPE:DATA(IDF)   UNIT  183   STATUS:UNKNOWN
 FORMAT:FORMATTED              ACCESS:SEQUENTIAL          

 OPENING bas\ibound_l29.idf
 FILE TYPE:DATA(IDF)   UNIT  184   STATUS:UNKNOWN
 FORMAT:FORMATTED              ACCESS:SEQUENTIAL          

 OPENING bas\ibound_l30.idf
 FILE TYPE:DATA(IDF)   UNIT  185   STATUS:UNKNOWN
 FORMAT:FORMATTED              ACCESS:SEQUENTIAL          

 OPENING bas\ibound_l31.idf
 FILE TYPE:DATA(IDF)   UNIT  186   STATUS:UNKNOWN
 FORMAT:FORMATTED              ACCESS:SEQUENTIAL          

 OPENING bas\ibound_l32.idf
 FILE TYPE:DATA(IDF)   UNIT  187   STATUS:UNKNOWN
 FORMAT:FORMATTED              ACCESS:SEQUENTIAL          

 OPENING bas\ibound_l33.idf
 FILE TYPE:DATA(IDF)   UNIT  188   STATUS:UNKNOWN
 FORMAT:FORMATTED              ACCESS:SEQUENTIAL          

 OPENING bas\ibound_l34.idf
 FILE TYPE:DATA(IDF)   UNIT  189   STATUS:UNKNOWN
 FORMAT:FORMATTED              ACCESS:SEQUENTIAL          

 OPENING bas\ibound_l35.idf
 FILE TYPE:DATA(IDF)   UNIT  190   STATUS:UNKNOWN
 FORMAT:FORMATTED              ACCESS:SEQUENTIAL          

 OPENING bas\ibound_l36.idf
 FILE TYPE:DATA(IDF)   UNIT  191   STATUS:UNKNOWN
 FORMAT:FORMATTED              ACCESS:SEQUENTIAL          

 OPENING bas\ibound_l37.idf
 FILE TYPE:DATA(IDF)   UNIT  192   STATUS:UNKNOWN
 FORMAT:FORMATTED              ACCESS:SEQUENTIAL          

 OPENING bas\ibound_l38.idf
 FILE TYPE:DATA(IDF)   UNIT  193   STATUS:UNKNOWN
 FORMAT:FORMATTED              ACCESS:SEQUENTIAL          

 OPENING bas\ibound_l39.idf
 FILE TYPE:DATA(IDF)   UNIT  194   STATUS:UNKNOWN
 FORMAT:FORMATTED              ACCESS:SEQUENTIAL          

 OPENING bas\ibound_l40.idf
 FILE TYPE:DATA(IDF)   UNIT  195   STATUS:UNKNOWN
 FORMAT:FORMATTED              ACCESS:SEQUENTIAL          

 OPENING bas\ibound_l41.idf
 FILE TYPE:DATA(IDF)   UNIT  196   STATUS:UNKNOWN
 FORMAT:FORMATTED              ACCESS:SEQUENTIAL          

 OPENING bas\ibound_l42.idf
 FILE TYPE:DATA(IDF)   UNIT  197   STATUS:UNKNOWN
 FORMAT:FORMATTED              ACCESS:SEQUENTIAL          

 OPENING bas\ibound_l43.idf
 FILE TYPE:DATA(IDF)   UNIT  198   STATUS:UNKNOWN
 FORMAT:FORMATTED              ACCESS:SEQUENTIAL          

 OPENING bas\ibound_l44.idf
 FILE TYPE:DATA(IDF)   UNIT  199   STATUS:UNKNOWN
 FORMAT:FORMATTED              ACCESS:SEQUENTIAL          

 OPENING bas\ibound_l45.idf
 FILE TYPE:DATA(IDF)   UNIT  201   STATUS:UNKNOWN
 FORMAT:FORMATTED              ACCESS:SEQUENTIAL          

 OPENING bas\ibound_l46.idf
 FILE TYPE:DATA(IDF)   UNIT  202   STATUS:UNKNOWN
 FORMAT:FORMATTED              ACCESS:SEQUENTIAL          

 OPENING bas\ibound_l47.idf
 FILE TYPE:DATA(IDF)   UNIT  203   STATUS:UNKNOWN
 FORMAT:FORMATTED              ACCESS:SEQUENTIAL          

 OPENING bas\ibound_l48.idf
 FILE TYPE:DATA(IDF)   UNIT  204   STATUS:UNKNOWN
 FORMAT:FORMATTED              ACCESS:SEQUENTIAL          

 OPENING bas\ibound_l49.idf
 FILE TYPE:DATA(IDF)   UNIT  205   STATUS:UNKNOWN
 FORMAT:FORMATTED              ACCESS:SEQUENTIAL          

 OPENING bas\ibound_l50.idf
 FILE TYPE:DATA(IDF)   UNIT  206   STATUS:UNKNOWN
 FORMAT:FORMATTED              ACCESS:SEQUENTIAL          

 OPENING lpf\k_horizontal_l1.idf
 FILE TYPE:DATA(IDF)   UNIT  207   STATUS:UNKNOWN
 FORMAT:FORMATTED              ACCESS:SEQUENTIAL          

 OPENING lpf\k_vertical_l1.idf
 FILE TYPE:DATA(IDF)   UNIT  208   STATUS:UNKNOWN
 FORMAT:FORMATTED              ACCESS:SEQUENTIAL          

 OPENING lpf\k_horizontal_l2.idf
 FILE TYPE:DATA(IDF)   UNIT  209   STATUS:UNKNOWN
 FORMAT:FORMATTED              ACCESS:SEQUENTIAL          

 OPENING lpf\k_vertical_l2.idf
 FILE TYPE:DATA(IDF)   UNIT  210   STATUS:UNKNOWN
 FORMAT:FORMATTED              ACCESS:SEQUENTIAL          

 OPENING lpf\k_horizontal_l3.idf
 FILE TYPE:DATA(IDF)   UNIT  211   STATUS:UNKNOWN
 FORMAT:FORMATTED              ACCESS:SEQUENTIAL          

 OPENING lpf\k_vertical_l3.idf
 FILE TYPE:DATA(IDF)   UNIT  212   STATUS:UNKNOWN
 FORMAT:FORMATTED              ACCESS:SEQUENTIAL          

 OPENING lpf\k_horizontal_l4.idf
 FILE TYPE:DATA(IDF)   UNIT  213   STATUS:UNKNOWN
 FORMAT:FORMATTED              ACCESS:SEQUENTIAL          

 OPENING lpf\k_vertical_l4.idf
 FILE TYPE:DATA(IDF)   UNIT  214   STATUS:UNKNOWN
 FORMAT:FORMATTED              ACCESS:SEQUENTIAL          

 OPENING lpf\k_horizontal_l5.idf
 FILE TYPE:DATA(IDF)   UNIT  215   STATUS:UNKNOWN
 FORMAT:FORMATTED              ACCESS:SEQUENTIAL          

 OPENING lpf\k_vertical_l5.idf
 FILE TYPE:DATA(IDF)   UNIT  216   STATUS:UNKNOWN
 FORMAT:FORMATTED              ACCESS:SEQUENTIAL          

 OPENING lpf\k_horizontal_l6.idf
 FILE TYPE:DATA(IDF)   UNIT  217   STATUS:UNKNOWN
 FORMAT:FORMATTED              ACCESS:SEQUENTIAL          

 OPENING lpf\k_vertical_l6.idf
 FILE TYPE:DATA(IDF)   UNIT  218   STATUS:UNKNOWN
 FORMAT:FORMATTED              ACCESS:SEQUENTIAL          

 OPENING lpf\k_horizontal_l7.idf
 FILE TYPE:DATA(IDF)   UNIT  219   STATUS:UNKNOWN
 FORMAT:FORMATTED              ACCESS:SEQUENTIAL          

 OPENING lpf\k_vertical_l7.idf
 FILE TYPE:DATA(IDF)   UNIT  220   STATUS:UNKNOWN
 FORMAT:FORMATTED              ACCESS:SEQUENTIAL          

 OPENING lpf\k_horizontal_l8.idf
 FILE TYPE:DATA(IDF)   UNIT  221   STATUS:UNKNOWN
 FORMAT:FORMATTED              ACCESS:SEQUENTIAL          

 OPENING lpf\k_vertical_l8.idf
 FILE TYPE:DATA(IDF)   UNIT  222   STATUS:UNKNOWN
 FORMAT:FORMATTED              ACCESS:SEQUENTIAL          

 OPENING lpf\k_horizontal_l9.idf
 FILE TYPE:DATA(IDF)   UNIT  223   STATUS:UNKNOWN
 FORMAT:FORMATTED              ACCESS:SEQUENTIAL          

 OPENING lpf\k_vertical_l9.idf
 FILE TYPE:DATA(IDF)   UNIT  224   STATUS:UNKNOWN
 FORMAT:FORMATTED              ACCESS:SEQUENTIAL          

 OPENING lpf\k_horizontal_l10.idf
 FILE TYPE:DATA(IDF)   UNIT  225   STATUS:UNKNOWN
 FORMAT:FORMATTED              ACCESS:SEQUENTIAL          

 OPENING lpf\k_vertical_l10.idf
 FILE TYPE:DATA(IDF)   UNIT  226   STATUS:UNKNOWN
 FORMAT:FORMATTED              ACCESS:SEQUENTIAL          

 OPENING lpf\k_horizontal_l11.idf
 FILE TYPE:DATA(IDF)   UNIT  227   STATUS:UNKNOWN
 FORMAT:FORMATTED              ACCESS:SEQUENTIAL          

 OPENING lpf\k_vertical_l11.idf
 FILE TYPE:DATA(IDF)   UNIT  228   STATUS:UNKNOWN
 FORMAT:FORMATTED              ACCESS:SEQUENTIAL          

 OPENING lpf\k_horizontal_l12.idf
 FILE TYPE:DATA(IDF)   UNIT  229   STATUS:UNKNOWN
 FORMAT:FORMATTED              ACCESS:SEQUENTIAL          

 OPENING lpf\k_vertical_l12.idf
 FILE TYPE:DATA(IDF)   UNIT  230   STATUS:UNKNOWN
 FORMAT:FORMATTED              ACCESS:SEQUENTIAL          

 OPENING lpf\k_horizontal_l13.idf
 FILE TYPE:DATA(IDF)   UNIT  231   STATUS:UNKNOWN
 FORMAT:FORMATTED              ACCESS:SEQUENTIAL          

 OPENING lpf\k_vertical_l13.idf
 FILE TYPE:DATA(IDF)   UNIT  232   STATUS:UNKNOWN
 FORMAT:FORMATTED              ACCESS:SEQUENTIAL          

 OPENING lpf\k_horizontal_l14.idf
 FILE TYPE:DATA(IDF)   UNIT  233   STATUS:UNKNOWN
 FORMAT:FORMATTED              ACCESS:SEQUENTIAL          

 OPENING lpf\k_vertical_l14.idf
 FILE TYPE:DATA(IDF)   UNIT  234   STATUS:UNKNOWN
 FORMAT:FORMATTED              ACCESS:SEQUENTIAL          

 OPENING lpf\k_horizontal_l15.idf
 FILE TYPE:DATA(IDF)   UNIT  235   STATUS:UNKNOWN
 FORMAT:FORMATTED              ACCESS:SEQUENTIAL          

 OPENING lpf\k_vertical_l15.idf
 FILE TYPE:DATA(IDF)   UNIT  236   STATUS:UNKNOWN
 FORMAT:FORMATTED              ACCESS:SEQUENTIAL          

 OPENING lpf\k_horizontal_l16.idf
 FILE TYPE:DATA(IDF)   UNIT  237   STATUS:UNKNOWN
 FORMAT:FORMATTED              ACCESS:SEQUENTIAL          

 OPENING lpf\k_vertical_l16.idf
 FILE TYPE:DATA(IDF)   UNIT  238   STATUS:UNKNOWN
 FORMAT:FORMATTED              ACCESS:SEQUENTIAL          

 OPENING lpf\k_horizontal_l17.idf
 FILE TYPE:DATA(IDF)   UNIT  239   STATUS:UNKNOWN
 FORMAT:FORMATTED              ACCESS:SEQUENTIAL          

 OPENING lpf\k_vertical_l17.idf
 FILE TYPE:DATA(IDF)   UNIT  240   STATUS:UNKNOWN
 FORMAT:FORMATTED              ACCESS:SEQUENTIAL          

 OPENING lpf\k_horizontal_l18.idf
 FILE TYPE:DATA(IDF)   UNIT  241   STATUS:UNKNOWN
 FORMAT:FORMATTED              ACCESS:SEQUENTIAL          

 OPENING lpf\k_vertical_l18.idf
 FILE TYPE:DATA(IDF)   UNIT  242   STATUS:UNKNOWN
 FORMAT:FORMATTED              ACCESS:SEQUENTIAL          

 OPENING lpf\k_horizontal_l19.idf
 FILE TYPE:DATA(IDF)   UNIT  243   STATUS:UNKNOWN
 FORMAT:FORMATTED              ACCESS:SEQUENTIAL          

 OPENING lpf\k_vertical_l19.idf
 FILE TYPE:DATA(IDF)   UNIT  244   STATUS:UNKNOWN
 FORMAT:FORMATTED              ACCESS:SEQUENTIAL          

 OPENING lpf\k_horizontal_l20.idf
 FILE TYPE:DATA(IDF)   UNIT  245   STATUS:UNKNOWN
 FORMAT:FORMATTED              ACCESS:SEQUENTIAL          

 OPENING lpf\k_vertical_l20.idf
 FILE TYPE:DATA(IDF)   UNIT  246   STATUS:UNKNOWN
 FORMAT:FORMATTED              ACCESS:SEQUENTIAL          

 OPENING lpf\k_horizontal_l21.idf
 FILE TYPE:DATA(IDF)   UNIT  247   STATUS:UNKNOWN
 FORMAT:FORMATTED              ACCESS:SEQUENTIAL          

 OPENING lpf\k_vertical_l21.idf
 FILE TYPE:DATA(IDF)   UNIT  248   STATUS:UNKNOWN
 FORMAT:FORMATTED              ACCESS:SEQUENTIAL          

 OPENING lpf\k_horizontal_l22.idf
 FILE TYPE:DATA(IDF)   UNIT  249   STATUS:UNKNOWN
 FORMAT:FORMATTED              ACCESS:SEQUENTIAL          

 OPENING lpf\k_vertical_l22.idf
 FILE TYPE:DATA(IDF)   UNIT  250   STATUS:UNKNOWN
 FORMAT:FORMATTED              ACCESS:SEQUENTIAL          

 OPENING lpf\k_horizontal_l23.idf
 FILE TYPE:DATA(IDF)   UNIT  251   STATUS:UNKNOWN
 FORMAT:FORMATTED              ACCESS:SEQUENTIAL          

 OPENING lpf\k_vertical_l23.idf
 FILE TYPE:DATA(IDF)   UNIT  252   STATUS:UNKNOWN
 FORMAT:FORMATTED              ACCESS:SEQUENTIAL          

 OPENING lpf\k_horizontal_l24.idf
 FILE TYPE:DATA(IDF)   UNIT  253   STATUS:UNKNOWN
 FORMAT:FORMATTED              ACCESS:SEQUENTIAL          

 OPENING lpf\k_vertical_l24.idf
 FILE TYPE:DATA(IDF)   UNIT  254   STATUS:UNKNOWN
 FORMAT:FORMATTED              ACCESS:SEQUENTIAL          

 OPENING lpf\k_horizontal_l25.idf
 FILE TYPE:DATA(IDF)   UNIT  255   STATUS:UNKNOWN
 FORMAT:FORMATTED              ACCESS:SEQUENTIAL          

 OPENING lpf\k_vertical_l25.idf
 FILE TYPE:DATA(IDF)   UNIT  256   STATUS:UNKNOWN
 FORMAT:FORMATTED              ACCESS:SEQUENTIAL          

 OPENING lpf\k_horizontal_l26.idf
 FILE TYPE:DATA(IDF)   UNIT  257   STATUS:UNKNOWN
 FORMAT:FORMATTED              ACCESS:SEQUENTIAL          

 OPENING lpf\k_vertical_l26.idf
 FILE TYPE:DATA(IDF)   UNIT  258   STATUS:UNKNOWN
 FORMAT:FORMATTED              ACCESS:SEQUENTIAL          

 OPENING lpf\k_horizontal_l27.idf
 FILE TYPE:DATA(IDF)   UNIT  259   STATUS:UNKNOWN
 FORMAT:FORMATTED              ACCESS:SEQUENTIAL          

 OPENING lpf\k_vertical_l27.idf
 FILE TYPE:DATA(IDF)   UNIT  260   STATUS:UNKNOWN
 FORMAT:FORMATTED              ACCESS:SEQUENTIAL          

 OPENING lpf\k_horizontal_l28.idf
 FILE TYPE:DATA(IDF)   UNIT  261   STATUS:UNKNOWN
 FORMAT:FORMATTED              ACCESS:SEQUENTIAL          

 OPENING lpf\k_vertical_l28.idf
 FILE TYPE:DATA(IDF)   UNIT  262   STATUS:UNKNOWN
 FORMAT:FORMATTED              ACCESS:SEQUENTIAL          

 OPENING lpf\k_horizontal_l29.idf
 FILE TYPE:DATA(IDF)   UNIT  263   STATUS:UNKNOWN
 FORMAT:FORMATTED              ACCESS:SEQUENTIAL          

 OPENING lpf\k_vertical_l29.idf
 FILE TYPE:DATA(IDF)   UNIT  264   STATUS:UNKNOWN
 FORMAT:FORMATTED              ACCESS:SEQUENTIAL          

 OPENING lpf\k_horizontal_l30.idf
 FILE TYPE:DATA(IDF)   UNIT  265   STATUS:UNKNOWN
 FORMAT:FORMATTED              ACCESS:SEQUENTIAL          

 OPENING lpf\k_vertical_l30.idf
 FILE TYPE:DATA(IDF)   UNIT  266   STATUS:UNKNOWN
 FORMAT:FORMATTED              ACCESS:SEQUENTIAL          

 OPENING lpf\k_horizontal_l31.idf
 FILE TYPE:DATA(IDF)   UNIT  267   STATUS:UNKNOWN
 FORMAT:FORMATTED              ACCESS:SEQUENTIAL          

 OPENING lpf\k_vertical_l31.idf
 FILE TYPE:DATA(IDF)   UNIT  268   STATUS:UNKNOWN
 FORMAT:FORMATTED              ACCESS:SEQUENTIAL          

 OPENING lpf\k_horizontal_l32.idf
 FILE TYPE:DATA(IDF)   UNIT  269   STATUS:UNKNOWN
 FORMAT:FORMATTED              ACCESS:SEQUENTIAL          

 OPENING lpf\k_vertical_l32.idf
 FILE TYPE:DATA(IDF)   UNIT  270   STATUS:UNKNOWN
 FORMAT:FORMATTED              ACCESS:SEQUENTIAL          

 OPENING lpf\k_horizontal_l33.idf
 FILE TYPE:DATA(IDF)   UNIT  271   STATUS:UNKNOWN
 FORMAT:FORMATTED              ACCESS:SEQUENTIAL          

 OPENING lpf\k_vertical_l33.idf
 FILE TYPE:DATA(IDF)   UNIT  272   STATUS:UNKNOWN
 FORMAT:FORMATTED              ACCESS:SEQUENTIAL          

 OPENING lpf\k_horizontal_l34.idf
 FILE TYPE:DATA(IDF)   UNIT  273   STATUS:UNKNOWN
 FORMAT:FORMATTED              ACCESS:SEQUENTIAL          

 OPENING lpf\k_vertical_l34.idf
 FILE TYPE:DATA(IDF)   UNIT  274   STATUS:UNKNOWN
 FORMAT:FORMATTED              ACCESS:SEQUENTIAL          

 OPENING lpf\k_horizontal_l35.idf
 FILE TYPE:DATA(IDF)   UNIT  275   STATUS:UNKNOWN
 FORMAT:FORMATTED              ACCESS:SEQUENTIAL          

 OPENING lpf\k_vertical_l35.idf
 FILE TYPE:DATA(IDF)   UNIT  276   STATUS:UNKNOWN
 FORMAT:FORMATTED              ACCESS:SEQUENTIAL          

 OPENING lpf\k_horizontal_l36.idf
 FILE TYPE:DATA(IDF)   UNIT  277   STATUS:UNKNOWN
 FORMAT:FORMATTED              ACCESS:SEQUENTIAL          

 OPENING lpf\k_vertical_l36.idf
 FILE TYPE:DATA(IDF)   UNIT  278   STATUS:UNKNOWN
 FORMAT:FORMATTED              ACCESS:SEQUENTIAL          

 OPENING lpf\k_horizontal_l37.idf
 FILE TYPE:DATA(IDF)   UNIT  279   STATUS:UNKNOWN
 FORMAT:FORMATTED              ACCESS:SEQUENTIAL          

 OPENING lpf\k_vertical_l37.idf
 FILE TYPE:DATA(IDF)   UNIT  280   STATUS:UNKNOWN
 FORMAT:FORMATTED              ACCESS:SEQUENTIAL          

 OPENING lpf\k_horizontal_l38.idf
 FILE TYPE:DATA(IDF)   UNIT  281   STATUS:UNKNOWN
 FORMAT:FORMATTED              ACCESS:SEQUENTIAL          

 OPENING lpf\k_vertical_l38.idf
 FILE TYPE:DATA(IDF)   UNIT  282   STATUS:UNKNOWN
 FORMAT:FORMATTED              ACCESS:SEQUENTIAL          

 OPENING lpf\k_horizontal_l39.idf
 FILE TYPE:DATA(IDF)   UNIT  283   STATUS:UNKNOWN
 FORMAT:FORMATTED              ACCESS:SEQUENTIAL          

 OPENING lpf\k_vertical_l39.idf
 FILE TYPE:DATA(IDF)   UNIT  284   STATUS:UNKNOWN
 FORMAT:FORMATTED              ACCESS:SEQUENTIAL          

 OPENING lpf\k_horizontal_l40.idf
 FILE TYPE:DATA(IDF)   UNIT  285   STATUS:UNKNOWN
 FORMAT:FORMATTED              ACCESS:SEQUENTIAL          

 OPENING lpf\k_vertical_l40.idf
 FILE TYPE:DATA(IDF)   UNIT  286   STATUS:UNKNOWN
 FORMAT:FORMATTED              ACCESS:SEQUENTIAL          

 OPENING lpf\k_horizontal_l41.idf
 FILE TYPE:DATA(IDF)   UNIT  287   STATUS:UNKNOWN
 FORMAT:FORMATTED              ACCESS:SEQUENTIAL          

 OPENING lpf\k_vertical_l41.idf
 FILE TYPE:DATA(IDF)   UNIT  288   STATUS:UNKNOWN
 FORMAT:FORMATTED              ACCESS:SEQUENTIAL          

 OPENING lpf\k_horizontal_l42.idf
 FILE TYPE:DATA(IDF)   UNIT  289   STATUS:UNKNOWN
 FORMAT:FORMATTED              ACCESS:SEQUENTIAL          

 OPENING lpf\k_vertical_l42.idf
 FILE TYPE:DATA(IDF)   UNIT  290   STATUS:UNKNOWN
 FORMAT:FORMATTED              ACCESS:SEQUENTIAL          

 OPENING lpf\k_horizontal_l43.idf
 FILE TYPE:DATA(IDF)   UNIT  291   STATUS:UNKNOWN
 FORMAT:FORMATTED              ACCESS:SEQUENTIAL          

 OPENING lpf\k_vertical_l43.idf
 FILE TYPE:DATA(IDF)   UNIT  292   STATUS:UNKNOWN
 FORMAT:FORMATTED              ACCESS:SEQUENTIAL          

 OPENING lpf\k_horizontal_l44.idf
 FILE TYPE:DATA(IDF)   UNIT  293   STATUS:UNKNOWN
 FORMAT:FORMATTED              ACCESS:SEQUENTIAL          

 OPENING lpf\k_vertical_l44.idf
 FILE TYPE:DATA(IDF)   UNIT  294   STATUS:UNKNOWN
 FORMAT:FORMATTED              ACCESS:SEQUENTIAL          

 OPENING lpf\k_horizontal_l45.idf
 FILE TYPE:DATA(IDF)   UNIT  295   STATUS:UNKNOWN
 FORMAT:FORMATTED              ACCESS:SEQUENTIAL          

 OPENING lpf\k_vertical_l45.idf
 FILE TYPE:DATA(IDF)   UNIT  296   STATUS:UNKNOWN
 FORMAT:FORMATTED              ACCESS:SEQUENTIAL          

 OPENING lpf\k_horizontal_l46.idf
 FILE TYPE:DATA(IDF)   UNIT  297   STATUS:UNKNOWN
 FORMAT:FORMATTED              ACCESS:SEQUENTIAL          

 OPENING lpf\k_vertical_l46.idf
 FILE TYPE:DATA(IDF)   UNIT  298   STATUS:UNKNOWN
 FORMAT:FORMATTED              ACCESS:SEQUENTIAL          

 OPENING lpf\k_horizontal_l47.idf
 FILE TYPE:DATA(IDF)   UNIT  299   STATUS:UNKNOWN
 FORMAT:FORMATTED              ACCESS:SEQUENTIAL          

 OPENING lpf\k_vertical_l47.idf
 FILE TYPE:DATA(IDF)   UNIT  301   STATUS:UNKNOWN
 FORMAT:FORMATTED              ACCESS:SEQUENTIAL          

 OPENING lpf\k_horizontal_l48.idf
 FILE TYPE:DATA(IDF)   UNIT  302   STATUS:UNKNOWN
 FORMAT:FORMATTED              ACCESS:SEQUENTIAL          

 OPENING lpf\k_vertical_l48.idf
 FILE TYPE:DATA(IDF)   UNIT  303   STATUS:UNKNOWN
 FORMAT:FORMATTED              ACCESS:SEQUENTIAL          

 OPENING lpf\k_horizontal_l49.idf
 FILE TYPE:DATA(IDF)   UNIT  304   STATUS:UNKNOWN
 FORMAT:FORMATTED              ACCESS:SEQUENTIAL          

 OPENING lpf\k_vertical_l49.idf
 FILE TYPE:DATA(IDF)   UNIT  305   STATUS:UNKNOWN
 FORMAT:FORMATTED              ACCESS:SEQUENTIAL          

 OPENING lpf\k_horizontal_l50.idf
 FILE TYPE:DATA(IDF)   UNIT  306   STATUS:UNKNOWN
 FORMAT:FORMATTED              ACCESS:SEQUENTIAL          

 OPENING lpf\k_vertical_l50.idf
 FILE TYPE:DATA(IDF)   UNIT  307   STATUS:UNKNOWN
 FORMAT:FORMATTED              ACCESS:SEQUENTIAL          

 OPENING wel\rate.ipf
 FILE TYPE:DATA(IPF)   UNIT  308   STATUS:UNKNOWN
 FORMAT:FORMATTED              ACCESS:SEQUENTIAL          

 THE FREE FORMAT OPTION HAS BEEN SELECTED

 DISCRETIZATION INPUT DATA READ FROM UNIT   15
   50 LAYERS         1 ROWS       100 COLUMNS
    9 STRESS PERIOD(S) IN SIMULATION
 MODEL TIME UNIT IS DAYS
 MODEL LENGTH UNIT IS METERS
  ----- 
 | M T | Model: henry                                                                    
 | 3 D |                                                                                 
  ----- 
 THE TRANSPORT MODEL CONSISTS OF    50 LAYER(S)    1 ROW(S)  100 COLUMN(S)
 NUMBER OF STRESS PERIOD(S) FOR TRANSPORT SIMULATION =    9
 NUMBER OF ALL COMPONENTS INCLUDED IN SIMULATION =    1
 NUMBER OF MOBILE COMPONENTS INCLUDED IN SIMULATION =    1
 UNIT FOR TIME IS    D;  UNIT FOR LENGTH IS    M;  UNIT FOR MASS IS    K
 OPTIONAL PACKAGES INCLUDED IN CURRENT SIMULATION:
  o ADV   ON UNIT 29
  o DSP   ON UNIT 31
  o SSM   ON UNIT 35
  o GCG   ON UNIT 33
  o MET   ON UNIT 39


 VDF -- VARIABLE DENSITY FLOW, VERSION 1, 2/13/2004
         INPUT READ FROM UNIT 26

 COUPLING BETWEEN FLOW AND TRANSPORT IS EXPLICIT
 VARIABLE-DENSITY WATER-TABLE CORRECTIONS NOT ADDED
 MT3DMS SPECIES USED IN EQUATION OF STATE FOR FLUID DENSITY:          1
 A CENTRAL-IN-SPACE-WEIGHTED ALGORITHM IS USED TO CALCUTE FLUID DENSITY TERMS THAT CONSERVE MASS
  1000.     REFERENCE DENSITY
 0.7100     DENSITY SLOPE FOR EQUATION OF STATE
 DENSITY EQUATION OF STATE
 RHO =     1000.00    
  + 0.7100     * ( CONC(   1) -  0.000     )



 FIRSTDT SPECIFIED BY USER IN THE VDF FILE IS:   0.1000000E-02
 THE GROUND-WATER TRANSPORT PROCESS IS INACTIVE

 THE OBSERVATION PROCESS IS INACTIVE
 THE SENSITIVITY PROCESS IS INACTIVE
 THE PARAMETER-ESTIMATION PROCESS IS INACTIVE

 MODE: FORWARD

  Confining bed flag for each layer:
   0   0   0   0   0   0   0   0   0   0   0   0   0   0   0   0   0   0   0   0
   0   0   0   0   0   0   0   0   0   0   0   0   0   0   0   0   0   0   0   0
   0   0   0   0   0   0   0   0   0   0

      45101  ELEMENTS OF GX ARRAY USED OUT OF      45101
       5000  ELEMENTS OF GZ ARRAY USED OUT OF       5000
       5000  ELEMENTS OF IG ARRAY USED OUT OF       5000



                               DELR
 READING ON UNIT   15 WITH FORMAT: (FREE)              
   1.0000       1.0000       1.0000       1.0000       1.0000       1.0000       1.0000       1.0000       1.0000       1.0000    
   1.0000       1.0000       1.0000       1.0000       1.0000       1.0000       1.0000       1.0000       1.0000       1.0000    
   1.0000       1.0000       1.0000       1.0000       1.0000       1.0000       1.0000       1.0000       1.0000       1.0000    
   1.0000       1.0000       1.0000       1.0000       1.0000       1.0000       1.0000       1.0000       1.0000       1.0000    
   1.0000       1.0000       1.0000       1.0000       1.0000       1.0000       1.0000       1.0000       1.0000       1.0000    
   1.0000       1.0000       1.0000       1.0000       1.0000       1.0000       1.0000       1.0000       1.0000       1.0000    
   1.0000       1.0000       1.0000       1.0000       1.0000       1.0000       1.0000       1.0000       1.0000       1.0000    
   1.0000       1.0000       1.0000       1.0000       1.0000       1.0000       1.0000       1.0000       1.0000       1.0000    
   1.0000       1.0000       1.0000       1.0000       1.0000       1.0000       1.0000       1.0000       1.0000       1.0000    
   1.0000       1.0000       1.0000       1.0000       1.0000       1.0000       1.0000       1.0000       1.0000       1.0000    



                               DELC
 READING ON UNIT   15 WITH FORMAT: (FREE)              
   1.0000    

 TOP ELEVATION OF LAYER 1 =   50.0000    

   MODEL LAYER BOTTOM EL. =   49.0000     FOR LAYER   1

   MODEL LAYER BOTTOM EL. =   48.0000     FOR LAYER   2

   MODEL LAYER BOTTOM EL. =   47.0000     FOR LAYER   3

   MODEL LAYER BOTTOM EL. =   46.0000     FOR LAYER   4

   MODEL LAYER BOTTOM EL. =   45.0000     FOR LAYER   5

   MODEL LAYER BOTTOM EL. =   44.0000     FOR LAYER   6

   MODEL LAYER BOTTOM EL. =   43.0000     FOR LAYER   7

   MODEL LAYER BOTTOM EL. =   42.0000     FOR LAYER   8

   MODEL LAYER BOTTOM EL. =   41.0000     FOR LAYER   9

   MODEL LAYER BOTTOM EL. =   40.0000     FOR LAYER  10

   MODEL LAYER BOTTOM EL. =   39.0000     FOR LAYER  11

   MODEL LAYER BOTTOM EL. =   38.0000     FOR LAYER  12

   MODEL LAYER BOTTOM EL. =   37.0000     FOR LAYER  13

   MODEL LAYER BOTTOM EL. =   36.0000     FOR LAYER  14

   MODEL LAYER BOTTOM EL. =   35.0000     FOR LAYER  15

   MODEL LAYER BOTTOM EL. =   34.0000     FOR LAYER  16

   MODEL LAYER BOTTOM EL. =   33.0000     FOR LAYER  17

   MODEL LAYER BOTTOM EL. =   32.0000     FOR LAYER  18

   MODEL LAYER BOTTOM EL. =   31.0000     FOR LAYER  19

   MODEL LAYER BOTTOM EL. =   30.0000     FOR LAYER  20

   MODEL LAYER BOTTOM EL. =   29.0000     FOR LAYER  21

   MODEL LAYER BOTTOM EL. =   28.0000     FOR LAYER  22

   MODEL LAYER BOTTOM EL. =   27.0000     FOR LAYER  23

   MODEL LAYER BOTTOM EL. =   26.0000     FOR LAYER  24

   MODEL LAYER BOTTOM EL. =   25.0000     FOR LAYER  25

   MODEL LAYER BOTTOM EL. =   24.0000     FOR LAYER  26

   MODEL LAYER BOTTOM EL. =   23.0000     FOR LAYER  27

   MODEL LAYER BOTTOM EL. =   22.0000     FOR LAYER  28

   MODEL LAYER BOTTOM EL. =   21.0000     FOR LAYER  29

   MODEL LAYER BOTTOM EL. =   20.0000     FOR LAYER  30

   MODEL LAYER BOTTOM EL. =   19.0000     FOR LAYER  31

   MODEL LAYER BOTTOM EL. =   18.0000     FOR LAYER  32

   MODEL LAYER BOTTOM EL. =   17.0000     FOR LAYER  33

   MODEL LAYER BOTTOM EL. =   16.0000     FOR LAYER  34

   MODEL LAYER BOTTOM EL. =   15.0000     FOR LAYER  35

   MODEL LAYER BOTTOM EL. =   14.0000     FOR LAYER  36

   MODEL LAYER BOTTOM EL. =   13.0000     FOR LAYER  37

   MODEL LAYER BOTTOM EL. =   12.0000     FOR LAYER  38

   MODEL LAYER BOTTOM EL. =   11.0000     FOR LAYER  39

   MODEL LAYER BOTTOM EL. =   10.0000     FOR LAYER  40

   MODEL LAYER BOTTOM EL. =   9.00000     FOR LAYER  41

   MODEL LAYER BOTTOM EL. =   8.00000     FOR LAYER  42

   MODEL LAYER BOTTOM EL. =   7.00000     FOR LAYER  43

   MODEL LAYER BOTTOM EL. =   6.00000     FOR LAYER  44

   MODEL LAYER BOTTOM EL. =   5.00000     FOR LAYER  45

   MODEL LAYER BOTTOM EL. =   4.00000     FOR LAYER  46

   MODEL LAYER BOTTOM EL. =   3.00000     FOR LAYER  47

   MODEL LAYER BOTTOM EL. =   2.00000     FOR LAYER  48

   MODEL LAYER BOTTOM EL. =   1.00000     FOR LAYER  49

   MODEL LAYER BOTTOM EL. =   0.00000     FOR LAYER  50


 STRESS PERIOD     LENGTH       TIME STEPS     MULTIPLIER FOR DELT    SS FLAG
 ----------------------------------------------------------------------------
        1         365.0000          1                    1.000         TR
        2         365.0000          1                    1.000         TR
        3         365.0000          1                    1.000         TR
        4         366.0000          1                    1.000         TR
        5         365.0000          1                    1.000         TR
        6         365.0000          1                    1.000         TR
        7         365.0000          1                    1.000         TR
        8         366.0000          1                    1.000         TR
        9         365.0000          1                    1.000         TR

 TRANSIENT SIMULATION




 LPF1 -- LAYER PROPERTY FLOW PACKAGE, VERSION 1, 1/11/2000
         INPUT READ FROM UNIT   20
 HEAD AT CELLS THAT CONVERT TO DRY=  1.00000E+20
 No named parameters

   LAYER FLAGS:
 LAYER       LAYTYP        LAYAVG         CHANI        LAYVKA        LAYWET
 ---------------------------------------------------------------------------
    1             0             0     1.000E+00             0             0
    2             0             0     1.000E+00             0             0
    3             0             0     1.000E+00             0             0
    4             0             0     1.000E+00             0             0
    5             0             0     1.000E+00             0             0
    6             0             0     1.000E+00             0             0
    7             0             0     1.000E+00             0             0
    8             0             0     1.000E+00             0             0
    9             0             0     1.000E+00             0             0
   10             0             0     1.000E+00             0             0
   11             0             0     1.000E+00             0             0
   12             0             0     1.000E+00             0             0
   13             0             0     1.000E+00             0             0
   14             0             0     1.000E+00             0             0
   15             0             0     1.000E+00             0             0
   16             0             0     1.000E+00             0             0
   17             0             0     1.000E+00             0             0
   18             0             0     1.000E+00             0             0
   19             0             0     1.000E+00             0             0
   20             0             0     1.000E+00             0             0
   21             0             0     1.000E+00             0             0
   22             0             0     1.000E+00             0             0
   23             0             0     1.000E+00             0             0
   24             0             0     1.000E+00             0             0
   25             0             0     1.000E+00             0             0
   26             0             0     1.000E+00             0             0
   27             0             0     1.000E+00             0             0
   28             0             0     1.000E+00             0             0
   29             0             0     1.000E+00             0             0
   30             0             0     1.000E+00             0             0
   31             0             0     1.000E+00             0             0
   32             0             0     1.000E+00             0             0
   33             0             0     1.000E+00             0             0
   34             0             0     1.000E+00             0             0
   35             0             0     1.000E+00             0             0
   36             0             0     1.000E+00             0             0
   37             0             0     1.000E+00             0             0
   38             0             0     1.000E+00             0             0
   39             0             0     1.000E+00             0             0
   40             0             0     1.000E+00             0             0
   41             0             0     1.000E+00             0             0
   42             0             0     1.000E+00             0             0
   43             0             0     1.000E+00             0             0
   44             0             0     1.000E+00             0             0
   45             0             0     1.000E+00             0             0
   46             0             0     1.000E+00             0             0
   47             0             0     1.000E+00             0             0
   48             0             0     1.000E+00             0             0
   49             0             0     1.000E+00             0             0
   50             0             0     1.000E+00             0             0

   INTERPRETATION OF LAYER FLAGS:
                        INTERBLOCK     HORIZONTAL    DATA IN
         LAYER TYPE   TRANSMISSIVITY   ANISOTROPY   ARRAY VKA   WETTABILITY
 LAYER      (LAYTYP)      (LAYAVG)       (CHANI)      (LAYVKA)      (LAYWET)
 ---------------------------------------------------------------------------
    1      CONFINED      HARMONIC     1.000E+00    VERTICAL K  NON-WETTABLE
    2      CONFINED      HARMONIC     1.000E+00    VERTICAL K  NON-WETTABLE
    3      CONFINED      HARMONIC     1.000E+00    VERTICAL K  NON-WETTABLE
    4      CONFINED      HARMONIC     1.000E+00    VERTICAL K  NON-WETTABLE
    5      CONFINED      HARMONIC     1.000E+00    VERTICAL K  NON-WETTABLE
    6      CONFINED      HARMONIC     1.000E+00    VERTICAL K  NON-WETTABLE
    7      CONFINED      HARMONIC     1.000E+00    VERTICAL K  NON-WETTABLE
    8      CONFINED      HARMONIC     1.000E+00    VERTICAL K  NON-WETTABLE
    9      CONFINED      HARMONIC     1.000E+00    VERTICAL K  NON-WETTABLE
   10      CONFINED      HARMONIC     1.000E+00    VERTICAL K  NON-WETTABLE
   11      CONFINED      HARMONIC     1.000E+00    VERTICAL K  NON-WETTABLE
   12      CONFINED      HARMONIC     1.000E+00    VERTICAL K  NON-WETTABLE
   13      CONFINED      HARMONIC     1.000E+00    VERTICAL K  NON-WETTABLE
   14      CONFINED      HARMONIC     1.000E+00    VERTICAL K  NON-WETTABLE
   15      CONFINED      HARMONIC     1.000E+00    VERTICAL K  NON-WETTABLE
   16      CONFINED      HARMONIC     1.000E+00    VERTICAL K  NON-WETTABLE
   17      CONFINED      HARMONIC     1.000E+00    VERTICAL K  NON-WETTABLE
   18      CONFINED      HARMONIC     1.000E+00    VERTICAL K  NON-WETTABLE
   19      CONFINED      HARMONIC     1.000E+00    VERTICAL K  NON-WETTABLE
   20      CONFINED      HARMONIC     1.000E+00    VERTICAL K  NON-WETTABLE
   21      CONFINED      HARMONIC     1.000E+00    VERTICAL K  NON-WETTABLE
   22      CONFINED      HARMONIC     1.000E+00    VERTICAL K  NON-WETTABLE
   23      CONFINED      HARMONIC     1.000E+00    VERTICAL K  NON-WETTABLE
   24      CONFINED      HARMONIC     1.000E+00    VERTICAL K  NON-WETTABLE
   25      CONFINED      HARMONIC     1.000E+00    VERTICAL K  NON-WETTABLE
   26      CONFINED      HARMONIC     1.000E+00    VERTICAL K  NON-WETTABLE
   27      CONFINED      HARMONIC     1.000E+00    VERTICAL K  NON-WETTABLE
   28      CONFINED      HARMONIC     1.000E+00    VERTICAL K  NON-WETTABLE
   29      CONFINED      HARMONIC     1.000E+00    VERTICAL K  NON-WETTABLE
   30      CONFINED      HARMONIC     1.000E+00    VERTICAL K  NON-WETTABLE
   31      CONFINED      HARMONIC     1.000E+00    VERTICAL K  NON-WETTABLE
   32      CONFINED      HARMONIC     1.000E+00    VERTICAL K  NON-WETTABLE
   33      CONFINED      HARMONIC     1.000E+00    VERTICAL K  NON-WETTABLE
   34      CONFINED      HARMONIC     1.000E+00    VERTICAL K  NON-WETTABLE
   35      CONFINED      HARMONIC     1.000E+00    VERTICAL K  NON-WETTABLE
   36      CONFINED      HARMONIC     1.000E+00    VERTICAL K  NON-WETTABLE
   37      CONFINED      HARMONIC     1.000E+00    VERTICAL K  NON-WETTABLE
   38      CONFINED      HARMONIC     1.000E+00    VERTICAL K  NON-WETTABLE
   39      CONFINED      HARMONIC     1.000E+00    VERTICAL K  NON-WETTABLE
   40      CONFINED      HARMONIC     1.000E+00    VERTICAL K  NON-WETTABLE
   41      CONFINED      HARMONIC     1.000E+00    VERTICAL K  NON-WETTABLE
   42      CONFINED      HARMONIC     1.000E+00    VERTICAL K  NON-WETTABLE
   43      CONFINED      HARMONIC     1.000E+00    VERTICAL K  NON-WETTABLE
   44      CONFINED      HARMONIC     1.000E+00    VERTICAL K  NON-WETTABLE
   45      CONFINED      HARMONIC     1.000E+00    VERTICAL K  NON-WETTABLE
   46      CONFINED      HARMONIC     1.000E+00    VERTICAL K  NON-WETTABLE
   47      CONFINED      HARMONIC     1.000E+00    VERTICAL K  NON-WETTABLE
   48      CONFINED      HARMONIC     1.000E+00    VERTICAL K  NON-WETTABLE
   49      CONFINED      HARMONIC     1.000E+00    VERTICAL K  NON-WETTABLE
   50      CONFINED      HARMONIC     1.000E+00    VERTICAL K  NON-WETTABLE

      15000 ELEMENTS IN X ARRAY ARE USED BY LPF
        300 ELEMENTS IN IX ARRAY ARE USED BY LPF

 PCG2 -- CONJUGATE GRADIENT SOLUTION PACKAGE, VERSION 2.4, 12/29/98
 MAXIMUM OF    150 CALLS OF SOLUTION ROUTINE
 MAXIMUM OF     30 INTERNAL ITERATIONS PER CALL TO SOLUTION ROUTINE
 MATRIX PRECONDITIONING TYPE :    1
      19000 ELEMENTS IN X ARRAY ARE USED BY PCG
      31500 ELEMENTS IN IX ARRAY ARE USED BY PCG
      20000 ELEMENTS IN Z ARRAY ARE USED BY PCG

      34000  ELEMENTS OF X ARRAY USED OUT OF      34000
      20000  ELEMENTS OF Z ARRAY USED OUT OF      20000
      31800  ELEMENTS OF IX ARRAY USED OUT OF      31800
          0  ELEMENTS OF XHS ARRAY USED OUT OF          1



                                    SOLUTION BY THE CONJUGATE-GRADIENT METHOD
                                   -------------------------------------------
                    MAXIMUM NUMBER OF CALLS TO PCG ROUTINE =      150
                        MAXIMUM ITERATIONS PER CALL TO PCG =       30
                               MATRIX PRECONDITIONING TYPE =        1
        RELAXATION FACTOR (ONLY USED WITH PRECOND. TYPE 1) =    0.98000E+00
 PARAMETER OF POLYNOMIAL PRECOND. = 2 (2) OR IS CALCULATED :        2
                         HEAD CHANGE CRITERION FOR CLOSURE =    0.10000E-05
                     RESIDUAL CHANGE CRITERION FOR CLOSURE =    0.10000E+01
            PCG HEAD AND RESIDUAL CHANGE PRINTOUT INTERVAL =        1
     PRINTING FROM SOLVER IS LIMITED(1) OR SUPPRESSED (>1) =        0
                                         DAMPING PARAMETER =    0.10000E+01

 WETTING CAPABILITY IS NOT ACTIVE IN ANY LAYER



              HYD. COND. ALONG ROWS FOR LAYER   1
 READING BINARY ON UNIT  207



                VERTICAL HYD. COND. FOR LAYER   1
 READING BINARY ON UNIT  208

         SPECIFIC STORAGE =   1.00000     FOR LAYER   1



              HYD. COND. ALONG ROWS FOR LAYER   2
 READING BINARY ON UNIT  209



                VERTICAL HYD. COND. FOR LAYER   2
 READING BINARY ON UNIT  210

         SPECIFIC STORAGE =   1.00000     FOR LAYER   2



              HYD. COND. ALONG ROWS FOR LAYER   3
 READING BINARY ON UNIT  211



                VERTICAL HYD. COND. FOR LAYER   3
 READING BINARY ON UNIT  212

         SPECIFIC STORAGE =   1.00000     FOR LAYER   3



              HYD. COND. ALONG ROWS FOR LAYER   4
 READING BINARY ON UNIT  213



                VERTICAL HYD. COND. FOR LAYER   4
 READING BINARY ON UNIT  214

         SPECIFIC STORAGE =   1.00000     FOR LAYER   4



              HYD. COND. ALONG ROWS FOR LAYER   5
 READING BINARY ON UNIT  215



                VERTICAL HYD. COND. FOR LAYER   5
 READING BINARY ON UNIT  216

         SPECIFIC STORAGE =   1.00000     FOR LAYER   5



              HYD. COND. ALONG ROWS FOR LAYER   6
 READING BINARY ON UNIT  217



                VERTICAL HYD. COND. FOR LAYER   6
 READING BINARY ON UNIT  218

         SPECIFIC STORAGE =   1.00000     FOR LAYER   6



              HYD. COND. ALONG ROWS FOR LAYER   7
 READING BINARY ON UNIT  219



                VERTICAL HYD. COND. FOR LAYER   7
 READING BINARY ON UNIT  220

         SPECIFIC STORAGE =   1.00000     FOR LAYER   7



              HYD. COND. ALONG ROWS FOR LAYER   8
 READING BINARY ON UNIT  221



                VERTICAL HYD. COND. FOR LAYER   8
 READING BINARY ON UNIT  222

         SPECIFIC STORAGE =   1.00000     FOR LAYER   8



              HYD. COND. ALONG ROWS FOR LAYER   9
 READING BINARY ON UNIT  223



                VERTICAL HYD. COND. FOR LAYER   9
 READING BINARY ON UNIT  224

         SPECIFIC STORAGE =   1.00000     FOR LAYER   9



              HYD. COND. ALONG ROWS FOR LAYER  10
 READING BINARY ON UNIT  225



                VERTICAL HYD. COND. FOR LAYER  10
 READING BINARY ON UNIT  226

         SPECIFIC STORAGE =   1.00000     FOR LAYER  10



              HYD. COND. ALONG ROWS FOR LAYER  11
 READING BINARY ON UNIT  227



                VERTICAL HYD. COND. FOR LAYER  11
 READING BINARY ON UNIT  228

         SPECIFIC STORAGE =   1.00000     FOR LAYER  11



              HYD. COND. ALONG ROWS FOR LAYER  12
 READING BINARY ON UNIT  229



                VERTICAL HYD. COND. FOR LAYER  12
 READING BINARY ON UNIT  230

         SPECIFIC STORAGE =   1.00000     FOR LAYER  12



              HYD. COND. ALONG ROWS FOR LAYER  13
 READING BINARY ON UNIT  231



                VERTICAL HYD. COND. FOR LAYER  13
 READING BINARY ON UNIT  232

         SPECIFIC STORAGE =   1.00000     FOR LAYER  13



              HYD. COND. ALONG ROWS FOR LAYER  14
 READING BINARY ON UNIT  233



                VERTICAL HYD. COND. FOR LAYER  14
 READING BINARY ON UNIT  234

         SPECIFIC STORAGE =   1.00000     FOR LAYER  14



              HYD. COND. ALONG ROWS FOR LAYER  15
 READING BINARY ON UNIT  235



                VERTICAL HYD. COND. FOR LAYER  15
 READING BINARY ON UNIT  236

         SPECIFIC STORAGE =   1.00000     FOR LAYER  15



              HYD. COND. ALONG ROWS FOR LAYER  16
 READING BINARY ON UNIT  237



                VERTICAL HYD. COND. FOR LAYER  16
 READING BINARY ON UNIT  238

         SPECIFIC STORAGE =   1.00000     FOR LAYER  16



              HYD. COND. ALONG ROWS FOR LAYER  17
 READING BINARY ON UNIT  239



                VERTICAL HYD. COND. FOR LAYER  17
 READING BINARY ON UNIT  240

         SPECIFIC STORAGE =   1.00000     FOR LAYER  17



              HYD. COND. ALONG ROWS FOR LAYER  18
 READING BINARY ON UNIT  241



                VERTICAL HYD. COND. FOR LAYER  18
 READING BINARY ON UNIT  242

         SPECIFIC STORAGE =   1.00000     FOR LAYER  18



              HYD. COND. ALONG ROWS FOR LAYER  19
 READING BINARY ON UNIT  243



                VERTICAL HYD. COND. FOR LAYER  19
 READING BINARY ON UNIT  244

         SPECIFIC STORAGE =   1.00000     FOR LAYER  19



              HYD. COND. ALONG ROWS FOR LAYER  20
 READING BINARY ON UNIT  245



                VERTICAL HYD. COND. FOR LAYER  20
 READING BINARY ON UNIT  246

         SPECIFIC STORAGE =   1.00000     FOR LAYER  20



              HYD. COND. ALONG ROWS FOR LAYER  21
 READING BINARY ON UNIT  247



                VERTICAL HYD. COND. FOR LAYER  21
 READING BINARY ON UNIT  248

         SPECIFIC STORAGE =   1.00000     FOR LAYER  21



              HYD. COND. ALONG ROWS FOR LAYER  22
 READING BINARY ON UNIT  249



                VERTICAL HYD. COND. FOR LAYER  22
 READING BINARY ON UNIT  250

         SPECIFIC STORAGE =   1.00000     FOR LAYER  22



              HYD. COND. ALONG ROWS FOR LAYER  23
 READING BINARY ON UNIT  251



                VERTICAL HYD. COND. FOR LAYER  23
 READING BINARY ON UNIT  252

         SPECIFIC STORAGE =   1.00000     FOR LAYER  23



              HYD. COND. ALONG ROWS FOR LAYER  24
 READING BINARY ON UNIT  253



                VERTICAL HYD. COND. FOR LAYER  24
 READING BINARY ON UNIT  254

         SPECIFIC STORAGE =   1.00000     FOR LAYER  24



              HYD. COND. ALONG ROWS FOR LAYER  25
 READING BINARY ON UNIT  255



                VERTICAL HYD. COND. FOR LAYER  25
 READING BINARY ON UNIT  256

         SPECIFIC STORAGE =   1.00000     FOR LAYER  25



              HYD. COND. ALONG ROWS FOR LAYER  26
 READING BINARY ON UNIT  257



                VERTICAL HYD. COND. FOR LAYER  26
 READING BINARY ON UNIT  258

         SPECIFIC STORAGE =   1.00000     FOR LAYER  26



              HYD. COND. ALONG ROWS FOR LAYER  27
 READING BINARY ON UNIT  259



                VERTICAL HYD. COND. FOR LAYER  27
 READING BINARY ON UNIT  260

         SPECIFIC STORAGE =   1.00000     FOR LAYER  27



              HYD. COND. ALONG ROWS FOR LAYER  28
 READING BINARY ON UNIT  261



                VERTICAL HYD. COND. FOR LAYER  28
 READING BINARY ON UNIT  262

         SPECIFIC STORAGE =   1.00000     FOR LAYER  28



              HYD. COND. ALONG ROWS FOR LAYER  29
 READING BINARY ON UNIT  263



                VERTICAL HYD. COND. FOR LAYER  29
 READING BINARY ON UNIT  264

         SPECIFIC STORAGE =   1.00000     FOR LAYER  29



              HYD. COND. ALONG ROWS FOR LAYER  30
 READING BINARY ON UNIT  265



                VERTICAL HYD. COND. FOR LAYER  30
 READING BINARY ON UNIT  266

         SPECIFIC STORAGE =   1.00000     FOR LAYER  30



              HYD. COND. ALONG ROWS FOR LAYER  31
 READING BINARY ON UNIT  267



                VERTICAL HYD. COND. FOR LAYER  31
 READING BINARY ON UNIT  268

         SPECIFIC STORAGE =   1.00000     FOR LAYER  31



              HYD. COND. ALONG ROWS FOR LAYER  32
 READING BINARY ON UNIT  269



                VERTICAL HYD. COND. FOR LAYER  32
 READING BINARY ON UNIT  270

         SPECIFIC STORAGE =   1.00000     FOR LAYER  32



              HYD. COND. ALONG ROWS FOR LAYER  33
 READING BINARY ON UNIT  271



                VERTICAL HYD. COND. FOR LAYER  33
 READING BINARY ON UNIT  272

         SPECIFIC STORAGE =   1.00000     FOR LAYER  33



              HYD. COND. ALONG ROWS FOR LAYER  34
 READING BINARY ON UNIT  273



                VERTICAL HYD. COND. FOR LAYER  34
 READING BINARY ON UNIT  274

         SPECIFIC STORAGE =   1.00000     FOR LAYER  34



              HYD. COND. ALONG ROWS FOR LAYER  35
 READING BINARY ON UNIT  275



                VERTICAL HYD. COND. FOR LAYER  35
 READING BINARY ON UNIT  276

         SPECIFIC STORAGE =   1.00000     FOR LAYER  35



              HYD. COND. ALONG ROWS FOR LAYER  36
 READING BINARY ON UNIT  277



                VERTICAL HYD. COND. FOR LAYER  36
 READING BINARY ON UNIT  278

         SPECIFIC STORAGE =   1.00000     FOR LAYER  36



              HYD. COND. ALONG ROWS FOR LAYER  37
 READING BINARY ON UNIT  279



                VERTICAL HYD. COND. FOR LAYER  37
 READING BINARY ON UNIT  280

         SPECIFIC STORAGE =   1.00000     FOR LAYER  37



              HYD. COND. ALONG ROWS FOR LAYER  38
 READING BINARY ON UNIT  281



                VERTICAL HYD. COND. FOR LAYER  38
 READING BINARY ON UNIT  282

         SPECIFIC STORAGE =   1.00000     FOR LAYER  38



              HYD. COND. ALONG ROWS FOR LAYER  39
 READING BINARY ON UNIT  283



                VERTICAL HYD. COND. FOR LAYER  39
 READING BINARY ON UNIT  284

         SPECIFIC STORAGE =   1.00000     FOR LAYER  39



              HYD. COND. ALONG ROWS FOR LAYER  40
 READING BINARY ON UNIT  285



                VERTICAL HYD. COND. FOR LAYER  40
 READING BINARY ON UNIT  286

         SPECIFIC STORAGE =   1.00000     FOR LAYER  40



              HYD. COND. ALONG ROWS FOR LAYER  41
 READING BINARY ON UNIT  287



                VERTICAL HYD. COND. FOR LAYER  41
 READING BINARY ON UNIT  288

         SPECIFIC STORAGE =   1.00000     FOR LAYER  41



              HYD. COND. ALONG ROWS FOR LAYER  42
 READING BINARY ON UNIT  289



                VERTICAL HYD. COND. FOR LAYER  42
 READING BINARY ON UNIT  290

         SPECIFIC STORAGE =   1.00000     FOR LAYER  42



              HYD. COND. ALONG ROWS FOR LAYER  43
 READING BINARY ON UNIT  291



                VERTICAL HYD. COND. FOR LAYER  43
 READING BINARY ON UNIT  292

         SPECIFIC STORAGE =   1.00000     FOR LAYER  43



              HYD. COND. ALONG ROWS FOR LAYER  44
 READING BINARY ON UNIT  293



                VERTICAL HYD. COND. FOR LAYER  44
 READING BINARY ON UNIT  294

         SPECIFIC STORAGE =   1.00000     FOR LAYER  44



              HYD. COND. ALONG ROWS FOR LAYER  45
 READING BINARY ON UNIT  295



                VERTICAL HYD. COND. FOR LAYER  45
 READING BINARY ON UNIT  296

         SPECIFIC STORAGE =   1.00000     FOR LAYER  45



              HYD. COND. ALONG ROWS FOR LAYER  46
 READING BINARY ON UNIT  297



                VERTICAL HYD. COND. FOR LAYER  46
 READING BINARY ON UNIT  298

         SPECIFIC STORAGE =   1.00000     FOR LAYER  46



              HYD. COND. ALONG ROWS FOR LAYER  47
 READING BINARY ON UNIT  299



                VERTICAL HYD. COND. FOR LAYER  47
 READING BINARY ON UNIT  301

         SPECIFIC STORAGE =   1.00000     FOR LAYER  47



              HYD. COND. ALONG ROWS FOR LAYER  48
 READING BINARY ON UNIT  302



                VERTICAL HYD. COND. FOR LAYER  48
 READING BINARY ON UNIT  303

         SPECIFIC STORAGE =   1.00000     FOR LAYER  48



              HYD. COND. ALONG ROWS FOR LAYER  49
 READING BINARY ON UNIT  304



                VERTICAL HYD. COND. FOR LAYER  49
 READING BINARY ON UNIT  305

         SPECIFIC STORAGE =   1.00000     FOR LAYER  49



              HYD. COND. ALONG ROWS FOR LAYER  50
 READING BINARY ON UNIT  306



                VERTICAL HYD. COND. FOR LAYER  50
 READING BINARY ON UNIT  307

         SPECIFIC STORAGE =   1.00000     FOR LAYER  50
 BTN5 -- BASIC TRANSPORT PACKAGE, VERSION 5, OCTOBER 2006, INPUT READ FROM UNIT 30
      75302 ELEMENTS OF THE  X ARRAY USED BY THE BTN PACKAGE
       5050 ELEMENTS OF THE IX ARRAY USED BY THE BTN PACKAGE

 FLOW MODEL IS TRANSIENT

 ADV5 -- ADVECTION PACKAGE, VERSION 5, FEBRUARY 2005, INPUT READ FROM UNIT 29
 ADVECTION IS SOLVED WITH THE ULTIMATE SCHEME
 COURANT NUMBER ALLOWED IN SOLVING THE ADVECTION TERM =  1.00    
          0 ELEMENTS OF THE  X ARRAY USED BY THE ADV PACKAGE
          0 ELEMENTS OF THE IX ARRAY USED BY THE ADV PACKAGE

 DSP5 -- DISPERSION PACKAGE, VERSION 5, OCTOBER 2006, INPUT READ FROM UNIT 31
      55100 ELEMENTS OF THE  X ARRAY USED BY THE DSP PACKAGE
          0 ELEMENTS OF THE IX ARRAY USED BY THE DSP PACKAGE

 SSM5 -- SINK & SOURCE MIXING PACKAGE, VERSION 5, OCTOBER 2006, INPUT READ FROM UNIT 35
 HEADER LINE OF THE SSM PACKAGE INPUT FILE:
  F F F F F F F F F F                                                                                                                                                                                    
 MAJOR STRESS COMPONENTS PRESENT IN THE FLOW MODEL:
  o WELL [WEL]
 MAXIMUM NUMBER OF POINT SINKS/SOURCES =     100
       2000 ELEMENTS OF THE  X ARRAY USED BY THE SSM PACKAGE
          0 ELEMENTS OF THE IX ARRAY BY THE SSM PACKAGE

 GCG5 -- GENERALIZED CONJUGATE GRADIENT SOLVER PACKAGE, VERSION 5, FEBRUARY 2005 INPUT READ FROM UNIT 33
 MAXIMUM OF  150 OUTER ITERATIONS
        AND   30 INNER ITERATIONS ALLOWED FOR CLOSURE
 THE PRECONDITIONING TYPE SELECTED IS MODIFIED INCOMPLETE CHOLESKY (MIC).
 DISPERSION CROSS TERMS LUMPED INTO RIGHT-HAND-SIDE
     114500 ELEMENTS OF THE  X ARRAY USED BY THE GCG PACKAGE
      13500 ELEMENTS OF THE IX ARRAY USED BY THE GCG PACKAGE

 
 THE FREE FORMAT OPTION HAS BEEN SELECTED
   50 LAYERS         1 ROWS       100 COLUMNS
    9 STRESS PERIOD(S) IN SIMULATION

 BAS6 -- BASIC PACKAGE, VERSION 6, 1/11/2000 INPUT READ FROM UNIT   11
        750 ELEMENTS IN IR ARRAY ARE USED BY BAS

 WEL6 -- WELL PACKAGE, VERSION 6, 1/11/2000 INPUT READ FROM UNIT   27
 No named parameters
 MAXIMUM OF      50 ACTIVE WELLS AT ONE TIME
 AUXILIARY WELL VARIABLE: NOPRINT         
        250 ELEMENTS IN RX ARRAY ARE USED BY WEL

        250  ELEMENTS OF RX ARRAY USED OUT OF        250
          0  ELEMENTS OF RZ ARRAY USED OUT OF          1
        750  ELEMENTS OF IR ARRAY USED OUT OF        750
1
                                                                                 
                                                                                 



                     BOUNDARY ARRAY FOR LAYER   1
 READING BINARY ON UNIT  156



                     BOUNDARY ARRAY FOR LAYER   2
 READING BINARY ON UNIT  157



                     BOUNDARY ARRAY FOR LAYER   3
 READING BINARY ON UNIT  158



                     BOUNDARY ARRAY FOR LAYER   4
 READING BINARY ON UNIT  159



                     BOUNDARY ARRAY FOR LAYER   5
 READING BINARY ON UNIT  160



                     BOUNDARY ARRAY FOR LAYER   6
 READING BINARY ON UNIT  161



                     BOUNDARY ARRAY FOR LAYER   7
 READING BINARY ON UNIT  162



                     BOUNDARY ARRAY FOR LAYER   8
 READING BINARY ON UNIT  163



                     BOUNDARY ARRAY FOR LAYER   9
 READING BINARY ON UNIT  164



                     BOUNDARY ARRAY FOR LAYER  10
 READING BINARY ON UNIT  165



                     BOUNDARY ARRAY FOR LAYER  11
 READING BINARY ON UNIT  166



                     BOUNDARY ARRAY FOR LAYER  12
 READING BINARY ON UNIT  167



                     BOUNDARY ARRAY FOR LAYER  13
 READING BINARY ON UNIT  168



                     BOUNDARY ARRAY FOR LAYER  14
 READING BINARY ON UNIT  169



                     BOUNDARY ARRAY FOR LAYER  15
 READING BINARY ON UNIT  170



                     BOUNDARY ARRAY FOR LAYER  16
 READING BINARY ON UNIT  171



                     BOUNDARY ARRAY FOR LAYER  17
 READING BINARY ON UNIT  172



                     BOUNDARY ARRAY FOR LAYER  18
 READING BINARY ON UNIT  173



                     BOUNDARY ARRAY FOR LAYER  19
 READING BINARY ON UNIT  174



                     BOUNDARY ARRAY FOR LAYER  20
 READING BINARY ON UNIT  175



                     BOUNDARY ARRAY FOR LAYER  21
 READING BINARY ON UNIT  176



                     BOUNDARY ARRAY FOR LAYER  22
 READING BINARY ON UNIT  177



                     BOUNDARY ARRAY FOR LAYER  23
 READING BINARY ON UNIT  178



                     BOUNDARY ARRAY FOR LAYER  24
 READING BINARY ON UNIT  179



                     BOUNDARY ARRAY FOR LAYER  25
 READING BINARY ON UNIT  180



                     BOUNDARY ARRAY FOR LAYER  26
 READING BINARY ON UNIT  181



                     BOUNDARY ARRAY FOR LAYER  27
 READING BINARY ON UNIT  182



                     BOUNDARY ARRAY FOR LAYER  28
 READING BINARY ON UNIT  183



                     BOUNDARY ARRAY FOR LAYER  29
 READING BINARY ON UNIT  184



                     BOUNDARY ARRAY FOR LAYER  30
 READING BINARY ON UNIT  185



                     BOUNDARY ARRAY FOR LAYER  31
 READING BINARY ON UNIT  186



                     BOUNDARY ARRAY FOR LAYER  32
 READING BINARY ON UNIT  187



                     BOUNDARY ARRAY FOR LAYER  33
 READING BINARY ON UNIT  188



                     BOUNDARY ARRAY FOR LAYER  34
 READING BINARY ON UNIT  189



                     BOUNDARY ARRAY FOR LAYER  35
 READING BINARY ON UNIT  190



                     BOUNDARY ARRAY FOR LAYER  36
 READING BINARY ON UNIT  191



                     BOUNDARY ARRAY FOR LAYER  37
 READING BINARY ON UNIT  192



                     BOUNDARY ARRAY FOR LAYER  38
 READING BINARY ON UNIT  193



                     BOUNDARY ARRAY FOR LAYER  39
 READING BINARY ON UNIT  194



                     BOUNDARY ARRAY FOR LAYER  40
 READING BINARY ON UNIT  195



                     BOUNDARY ARRAY FOR LAYER  41
 READING BINARY ON UNIT  196



                     BOUNDARY ARRAY FOR LAYER  42
 READING BINARY ON UNIT  197



                     BOUNDARY ARRAY FOR LAYER  43
 READING BINARY ON UNIT  198



                     BOUNDARY ARRAY FOR LAYER  44
 READING BINARY ON UNIT  199



                     BOUNDARY ARRAY FOR LAYER  45
 READING BINARY ON UNIT  201



                     BOUNDARY ARRAY FOR LAYER  46
 READING BINARY ON UNIT  202



                     BOUNDARY ARRAY FOR LAYER  47
 READING BINARY ON UNIT  203



                     BOUNDARY ARRAY FOR LAYER  48
 READING BINARY ON UNIT  204



                     BOUNDARY ARRAY FOR LAYER  49
 READING BINARY ON UNIT  205



                     BOUNDARY ARRAY FOR LAYER  50
 READING BINARY ON UNIT  206

 AQUIFER HEAD WILL BE SET TO 1.00000E+30 AT ALL NO-FLOW NODES (IBOUND=0).

             INITIAL HEAD =   50.0000     FOR LAYER   1

             INITIAL HEAD =   50.0000     FOR LAYER   2

             INITIAL HEAD =   50.0000     FOR LAYER   3

             INITIAL HEAD =   50.0000     FOR LAYER   4

             INITIAL HEAD =   50.0000     FOR LAYER   5

             INITIAL HEAD =   50.0000     FOR LAYER   6

             INITIAL HEAD =   50.0000     FOR LAYER   7

             INITIAL HEAD =   50.0000     FOR LAYER   8

             INITIAL HEAD =   50.0000     FOR LAYER   9

             INITIAL HEAD =   50.0000     FOR LAYER  10

             INITIAL HEAD =   50.0000     FOR LAYER  11

             INITIAL HEAD =   50.0000     FOR LAYER  12

             INITIAL HEAD =   50.0000     FOR LAYER  13

             INITIAL HEAD =   50.0000     FOR LAYER  14

             INITIAL HEAD =   50.0000     FOR LAYER  15

             INITIAL HEAD =   50.0000     FOR LAYER  16

             INITIAL HEAD =   50.0000     FOR LAYER  17

             INITIAL HEAD =   50.0000     FOR LAYER  18

             INITIAL HEAD =   50.0000     FOR LAYER  19

             INITIAL HEAD =   50.0000     FOR LAYER  20

             INITIAL HEAD =   50.0000     FOR LAYER  21

             INITIAL HEAD =   50.0000     FOR LAYER  22

             INITIAL HEAD =   50.0000     FOR LAYER  23

             INITIAL HEAD =   50.0000     FOR LAYER  24

             INITIAL HEAD =   50.0000     FOR LAYER  25

             INITIAL HEAD =   50.0000     FOR LAYER  26

             INITIAL HEAD =   50.0000     FOR LAYER  27

             INITIAL HEAD =   50.0000     FOR LAYER  28

             INITIAL HEAD =   50.0000     FOR LAYER  29

             INITIAL HEAD =   50.0000     FOR LAYER  30

             INITIAL HEAD =   50.0000     FOR LAYER  31

             INITIAL HEAD =   50.0000     FOR LAYER  32

             INITIAL HEAD =   50.0000     FOR LAYER  33

             INITIAL HEAD =   50.0000     FOR LAYER  34

             INITIAL HEAD =   50.0000     FOR LAYER  35

             INITIAL HEAD =   50.0000     FOR LAYER  36

             INITIAL HEAD =   50.0000     FOR LAYER  37

             INITIAL HEAD =   50.0000     FOR LAYER  38

             INITIAL HEAD =   50.0000     FOR LAYER  39

             INITIAL HEAD =   50.0000     FOR LAYER  40

             INITIAL HEAD =   50.0000     FOR LAYER  41

             INITIAL HEAD =   50.0000     FOR LAYER  42

             INITIAL HEAD =   50.0000     FOR LAYER  43

             INITIAL HEAD =   50.0000     FOR LAYER  44

             INITIAL HEAD =   50.0000     FOR LAYER  45

             INITIAL HEAD =   50.0000     FOR LAYER  46

             INITIAL HEAD =   50.0000     FOR LAYER  47

             INITIAL HEAD =   50.0000     FOR LAYER  48

             INITIAL HEAD =   50.0000     FOR LAYER  49

             INITIAL HEAD =   50.0000     FOR LAYER  50

 OUTPUT CONTROL IS SPECIFIED ONLY AT TIME STEPS FOR WHICH OUTPUT IS DESIRED
 HEAD PRINT FORMAT CODE IS   0    DRAWDOWN PRINT FORMAT CODE IS   0
 HEADS WILL BE SAVED ON UNIT   99    DRAWDOWNS WILL BE SAVED ON UNIT    0


     0 Well parameters
 LAYER NUMBER  AQUIFER TYPE
 ------------  ------------
       1            0
       2            0
       3            0
       4            0
       5            0
       6            0
       7            0
       8            0
       9            0
      10            0
      11            0
      12            0
      13            0
      14            0
      15            0
      16            0
      17            0
      18            0
      19            0
      20            0
      21            0
      22            0
      23            0
      24            0
      25            0
      26            0
      27            0
      28            0
      29            0
      30            0
      31            0
      32            0
      33            0
      34            0
      35            0
      36            0
      37            0
      38            0
      39            0
      40            0
      41            0
      42            0
      43            0
      44            0
      45            0
      46            0
      47            0
      48            0
      49            0
      50            0



           WIDTH ALONG ROWS (DELR) 
 READING ON UNIT   30 WITH FORMAT: (FREE)              
   1.0000       1.0000       1.0000       1.0000       1.0000       1.0000       1.0000       1.0000       1.0000       1.0000    
   1.0000       1.0000       1.0000       1.0000       1.0000       1.0000       1.0000       1.0000       1.0000       1.0000    
   1.0000       1.0000       1.0000       1.0000       1.0000       1.0000       1.0000       1.0000       1.0000       1.0000    
   1.0000       1.0000       1.0000       1.0000       1.0000       1.0000       1.0000       1.0000       1.0000       1.0000    
   1.0000       1.0000       1.0000       1.0000       1.0000       1.0000       1.0000       1.0000       1.0000       1.0000    
   1.0000       1.0000       1.0000       1.0000       1.0000       1.0000       1.0000       1.0000       1.0000       1.0000    
   1.0000       1.0000       1.0000       1.0000       1.0000       1.0000       1.0000       1.0000       1.0000       1.0000    
   1.0000       1.0000       1.0000       1.0000       1.0000       1.0000       1.0000       1.0000       1.0000       1.0000    
   1.0000       1.0000       1.0000       1.0000       1.0000       1.0000       1.0000       1.0000       1.0000       1.0000    
   1.0000       1.0000       1.0000       1.0000       1.0000       1.0000       1.0000       1.0000       1.0000       1.0000    



           WIDTH ALONG COLS (DELC) 
 READING ON UNIT   30 WITH FORMAT: (FREE)              
   1.0000    

 TOP ELEV. OF 1ST LAYER   =   50.0000    

 CELL THICKNESS (DZ)      =   1.00000    

 CELL THICKNESS (DZ)      =   1.00000    

 CELL THICKNESS (DZ)      =   1.00000    

 CELL THICKNESS (DZ)      =   1.00000    

 CELL THICKNESS (DZ)      =   1.00000    

 CELL THICKNESS (DZ)      =   1.00000    

 CELL THICKNESS (DZ)      =   1.00000    

 CELL THICKNESS (DZ)      =   1.00000    

 CELL THICKNESS (DZ)      =   1.00000    

 CELL THICKNESS (DZ)      =   1.00000    

 CELL THICKNESS (DZ)      =   1.00000    

 CELL THICKNESS (DZ)      =   1.00000    

 CELL THICKNESS (DZ)      =   1.00000    

 CELL THICKNESS (DZ)      =   1.00000    

 CELL THICKNESS (DZ)      =   1.00000    

 CELL THICKNESS (DZ)      =   1.00000    

 CELL THICKNESS (DZ)      =   1.00000    

 CELL THICKNESS (DZ)      =   1.00000    

 CELL THICKNESS (DZ)      =   1.00000    

 CELL THICKNESS (DZ)      =   1.00000    

 CELL THICKNESS (DZ)      =   1.00000    

 CELL THICKNESS (DZ)      =   1.00000    

 CELL THICKNESS (DZ)      =   1.00000    

 CELL THICKNESS (DZ)      =   1.00000    

 CELL THICKNESS (DZ)      =   1.00000    

 CELL THICKNESS (DZ)      =   1.00000    

 CELL THICKNESS (DZ)      =   1.00000    

[...]
  0 -0.2887E-05  0 -0.2408E-05  0 -0.1961E-05  0 -0.1265E-05  0 -0.8973E-06
   (  2,  1, 32)  (  1,  1, 36)  (  4,  1,  4)  (  5,  1, 12)  (  1,  1,  6)
  1 -0.2491E-06
   (  4,  1,  2)

 MAXIMUM RESIDUAL FOR EACH ITERATION (1 INDICATES THE FIRST INNER ITERATION):

    RESIDUAL       RESIDUAL       RESIDUAL       RESIDUAL       RESIDUAL    
   LAYER,ROW,COL  LAYER,ROW,COL  LAYER,ROW,COL  LAYER,ROW,COL  LAYER,ROW,COL
 ---------------------------------------------------------------------------
  1   4.667      0   2.898      0  -1.609      0 -0.8649      0 -0.7383    
   ( 50,  1, 36)  ( 50,  1, 30)  ( 49,  1, 29)  ( 50,  1, 48)  ( 50,  1, 27)
  0 -0.3907      0 -0.2846      0  0.1573      0  0.8455E-01  0  0.5549E-01
   ( 49,  1, 38)  ( 49,  1, 34)  ( 50,  1, 28)  ( 49,  1, 38)  ( 49,  1, 34)
  0 -0.4453E-01  0 -0.4677E-01  0  0.3759E-01  0  0.2212E-01  0  0.1465E-01
   ( 41,  1,  2)  ( 43,  1,  2)  ( 41,  1,  2)  ( 43,  1,  2)  ( 45,  1,  2)
  1  0.4876E-02
   ( 35,  1,  3)


 FLOW MODEL IS TRANSIENT
 FLOW MODEL CONTAINS CONSTANT-HEAD CELLS


 MAXIMUM STEPSIZE DURING WHICH ANY PARTICLE CANNOT MOVE MORE THAN ONE CELL
 =  9.956    (WHEN MIN. R.F.=1)  AT K=   1, I=   1, J=  99

 MAXIMUM STEPSIZE WHICH MEETS STABILITY CRITERION OF THE ADVECTION TERM
 (FOR PURE FINITE-DIFFERENCE OPTION, MIXELM=0) 
 =  9.700    (WHEN MIN. R.F.=1)  AT K=   1, I=   1, J=  99


 TOTAL NUMBER OF POINT SOURCES/SINKS PRESENT IN THE FLOW MODEL =       100

 MAXIMUM STEPSIZE WHICH MEETS STABILITY CRITERION OF THE SINK & SOURCE TERM
 =  122.8    (WHEN MIN. R.F.=1)  AT K=   1, I=   1, J=   1

 MAXIMUM STEPSIZE WHICH MEETS STABILITY CRITERION OF THE DISPERSION TERM
 =  2.216    (WHEN MIN. R.F.=1)  AT K=   1, I=   1, J=  99
     5 CALLS TO GCG PACKAGE FOR TRANSPORT TIME STEP  33 IN FLOW TIME STEP   1 STRESS PERIOD   9
    15 TOTAL ITERATIONS
 
 SOLVING FOR HEAD 


     2 CALLS TO PCG ROUTINE FOR TIME STEP   1 IN STRESS PERIOD    9
    20 TOTAL ITERATIONS

 MAXIMUM HEAD CHANGE FOR EACH ITERATION (1 INDICATES THE FIRST INNER ITERATION):

    HEAD CHANGE    HEAD CHANGE    HEAD CHANGE    HEAD CHANGE    HEAD CHANGE 
   LAYER,ROW,COL  LAYER,ROW,COL  LAYER,ROW,COL  LAYER,ROW,COL  LAYER,ROW,COL
 ---------------------------------------------------------------------------
  1  0.6206E-03  0  0.1757E-03  0  0.9960E-04  0  0.5755E-04  0  0.4190E-04
   ( 50,  1, 34)  ( 48,  1, 42)  ( 46,  1, 48)  ( 43,  1, 53)  ( 40,  1, 57)
  0  0.2257E-04  0  0.1394E-04  0 -0.1002E-04  0 -0.4994E-05  0 -0.3680E-05
   ( 50,  1, 53)  ( 50,  1,  1)  (  1,  1, 65)  (  1,  1, 39)  (  1,  1, 45)
  0 -0.2971E-05  0 -0.2516E-05  0 -0.2122E-05  0 -0.1392E-05  0 -0.1017E-05
   (  2,  1, 32)  (  1,  1, 36)  (  4,  1,  4)  (  5,  1, 12)  (  1,  1,  6)
  0 -0.1110E-05  0 -0.1191E-05  0 -0.1010E-05  0 -0.9320E-06  1 -0.1879E-06
   (  3,  1,  1)  (  2,  1,  4)  (  1,  1,  5)  ( 43,  1,  2)  ( 50,  1,  3)

 MAXIMUM RESIDUAL FOR EACH ITERATION (1 INDICATES THE FIRST INNER ITERATION):

    RESIDUAL       RESIDUAL       RESIDUAL       RESIDUAL       RESIDUAL    
   LAYER,ROW,COL  LAYER,ROW,COL  LAYER,ROW,COL  LAYER,ROW,COL  LAYER,ROW,COL
 ---------------------------------------------------------------------------
  1   4.662      0   2.889      0  -1.612      0 -0.8635      0 -0.7393    
   ( 50,  1, 36)  ( 50,  1, 30)  ( 49,  1, 29)  ( 50,  1, 48)  ( 50,  1, 27)
  0 -0.3903      0 -0.2843      0  0.1554      0  0.8523E-01  0  0.5588E-01
   ( 49,  1, 38)  ( 49,  1, 34)  ( 50,  1, 28)  ( 49,  1, 38)  ( 49,  1, 34)
  0 -0.4576E-01  0 -0.4786E-01  0  0.3941E-01  0  0.2351E-01  0  0.1618E-01
   ( 41,  1,  2)  ( 43,  1,  2)  ( 41,  1,  2)  ( 44,  1,  2)  ( 45,  1,  2)
  0 -0.1723E-01  0  0.1755E-01  0  0.1691E-01  0  0.1495E-01  1 -0.4036E-02
   ( 43,  1,  2)  (  1,  1, 99)  ( 43,  1,  2)  ( 45,  1,  2)  (  1,  1, 99)


 FLOW MODEL IS TRANSIENT
 FLOW MODEL CONTAINS CONSTANT-HEAD CELLS


 MAXIMUM STEPSIZE DURING WHICH ANY PARTICLE CANNOT MOVE MORE THAN ONE CELL
 =  9.959    (WHEN MIN. R.F.=1)  AT K=   1, I=   1, J=  99

 MAXIMUM STEPSIZE WHICH MEETS STABILITY CRITERION OF THE ADVECTION TERM
 (FOR PURE FINITE-DIFFERENCE OPTION, MIXELM=0) 
 =  9.702    (WHEN MIN. R.F.=1)  AT K=   1, I=   1, J=  99


 TOTAL NUMBER OF POINT SOURCES/SINKS PRESENT IN THE FLOW MODEL =       100

 MAXIMUM STEPSIZE WHICH MEETS STABILITY CRITERION OF THE SINK & SOURCE TERM
 =  122.8    (WHEN MIN. R.F.=1)  AT K=   1, I=   1, J=   1

 MAXIMUM STEPSIZE WHICH MEETS STABILITY CRITERION OF THE DISPERSION TERM
 =  2.216    (WHEN MIN. R.F.=1)  AT K=   1, I=   1, J=  99
     5 CALLS TO GCG PACKAGE FOR TRANSPORT TIME STEP  34 IN FLOW TIME STEP   1 STRESS PERIOD   9
    15 TOTAL ITERATIONS
 
 SOLVING FOR HEAD 


     2 CALLS TO PCG ROUTINE FOR TIME STEP   1 IN STRESS PERIOD    9
    16 TOTAL ITERATIONS

 MAXIMUM HEAD CHANGE FOR EACH ITERATION (1 INDICATES THE FIRST INNER ITERATION):

    HEAD CHANGE    HEAD CHANGE    HEAD CHANGE    HEAD CHANGE    HEAD CHANGE 
   LAYER,ROW,COL  LAYER,ROW,COL  LAYER,ROW,COL  LAYER,ROW,COL  LAYER,ROW,COL
 ---------------------------------------------------------------------------
  1  0.6197E-03  0  0.1753E-03  0  0.9944E-04  0  0.5746E-04  0  0.4184E-04
   ( 50,  1, 34)  ( 48,  1, 42)  ( 46,  1, 48)  ( 43,  1, 53)  ( 40,  1, 57)
  0  0.2247E-04  0  0.1421E-04  0 -0.1009E-04  0 -0.4947E-05  0 -0.3596E-05
   ( 50,  1, 53)  ( 50,  1,  1)  (  1,  1, 65)  (  1,  1, 39)  (  1,  1, 45)
  0 -0.2857E-05  0 -0.2386E-05  0 -0.2010E-05  0 -0.1295E-05  0 -0.9175E-06
   (  2,  1, 32)  (  1,  1, 36)  (  4,  1,  4)  (  5,  1, 12)  (  1,  1,  6)
  1 -0.2588E-06
   (  4,  1,  2)

 MAXIMUM RESIDUAL FOR EACH ITERATION (1 INDICATES THE FIRST INNER ITERATION):

    RESIDUAL       RESIDUAL       RESIDUAL       RESIDUAL       RESIDUAL    
   LAYER,ROW,COL  LAYER,ROW,COL  LAYER,ROW,COL  LAYER,ROW,COL  LAYER,ROW,COL
 ---------------------------------------------------------------------------
  1   4.647      0   2.864      0  -1.605      0 -0.8596      0 -0.7404    
   ( 50,  1, 36)  ( 50,  1, 30)  ( 49,  1, 29)  ( 50,  1, 48)  ( 50,  1, 27)
  0 -0.3895      0 -0.2837      0  0.1518      0  0.8457E-01  0  0.5483E-01
   ( 49,  1, 37)  ( 49,  1, 34)  ( 50,  1, 28)  ( 49,  1, 38)  ( 49,  1, 34)
  0 -0.4566E-01  0 -0.4615E-01  0  0.3745E-01  0  0.2243E-01  0  0.1475E-01
   ( 41,  1,  2)  ( 43,  1,  2)  ( 41,  1,  2)  ( 43,  1,  2)  ( 45,  1,  2)
  1  0.4802E-02
   ( 35,  1,  3)


 FLOW MODEL IS TRANSIENT
 FLOW MODEL CONTAINS CONSTANT-HEAD CELLS


 MAXIMUM STEPSIZE DURING WHICH ANY PARTICLE CANNOT MOVE MORE THAN ONE CELL
 =  9.961    (WHEN MIN. R.F.=1)  AT K=   1, I=   1, J=  99

 MAXIMUM STEPSIZE WHICH MEETS STABILITY CRITERION OF THE ADVECTION TERM
 (FOR PURE FINITE-DIFFERENCE OPTION, MIXELM=0) 
 =  9.704    (WHEN MIN. R.F.=1)  AT K=   1, I=   1, J=  99


 TOTAL NUMBER OF POINT SOURCES/SINKS PRESENT IN THE FLOW MODEL =       100

 MAXIMUM STEPSIZE WHICH MEETS STABILITY CRITERION OF THE SINK & SOURCE TERM
 =  122.8    (WHEN MIN. R.F.=1)  AT K=   1, I=   1, J=   1

 MAXIMUM STEPSIZE WHICH MEETS STABILITY CRITERION OF THE DISPERSION TERM
 =  2.217    (WHEN MIN. R.F.=1)  AT K=   1, I=   1, J=  99
     5 CALLS TO GCG PACKAGE FOR TRANSPORT TIME STEP  35 IN FLOW TIME STEP   1 STRESS PERIOD   9
    15 TOTAL ITERATIONS
 
 SOLVING FOR HEAD 


     2 CALLS TO PCG ROUTINE FOR TIME STEP   1 IN STRESS PERIOD    9
    16 TOTAL ITERATIONS

 MAXIMUM HEAD CHANGE FOR EACH ITERATION (1 INDICATES THE FIRST INNER ITERATION):

    HEAD CHANGE    HEAD CHANGE    HEAD CHANGE    HEAD CHANGE    HEAD CHANGE 
   LAYER,ROW,COL  LAYER,ROW,COL  LAYER,ROW,COL  LAYER,ROW,COL  LAYER,ROW,COL
 ---------------------------------------------------------------------------
  1  0.6185E-03  0  0.1748E-03  0  0.9902E-04  0  0.5724E-04  0  0.4168E-04
   ( 50,  1, 34)  ( 48,  1, 42)  ( 46,  1, 48)  ( 43,  1, 53)  ( 40,  1, 57)
  0  0.2244E-04  0  0.1387E-04  0 -0.1001E-04  0 -0.4957E-05  0 -0.3639E-05
   ( 50,  1, 53)  ( 50,  1,  1)  (  1,  1, 65)  (  1,  1, 39)  (  1,  1, 45)
  0 -0.2926E-05  0 -0.2472E-05  0 -0.2086E-05  0 -0.1360E-05  0 -0.9747E-06
   (  2,  1, 32)  (  1,  1, 36)  (  4,  1,  4)  (  4,  1, 10)  (  1,  1,  6)
  1 -0.2627E-06
   (  4,  1,  2)

 MAXIMUM RESIDUAL FOR EACH ITERATION (1 INDICATES THE FIRST INNER ITERATION):

    RESIDUAL       RESIDUAL       RESIDUAL       RESIDUAL       RESIDUAL    
   LAYER,ROW,COL  LAYER,ROW,COL  LAYER,ROW,COL  LAYER,ROW,COL  LAYER,ROW,COL
 ---------------------------------------------------------------------------
  1   4.633      0   2.839      0  -1.606      0 -0.8609      0 -0.7412    
   ( 50,  1, 36)  ( 50,  1, 30)  ( 49,  1, 29)  ( 50,  1, 48)  ( 50,  1, 27)
  0 -0.3898      0 -0.2835      0  0.1512      0  0.8496E-01  0  0.5534E-01
   ( 49,  1, 37)  ( 49,  1, 34)  ( 50,  1, 27)  ( 49,  1, 38)  ( 49,  1, 34)
  0 -0.4576E-01  0 -0.4734E-01  0  0.3883E-01  0  0.2314E-01  0  0.1554E-01
   ( 41,  1,  2)  ( 43,  1,  2)  ( 41,  1,  2)  ( 44,  1,  2)  ( 45,  1,  2)
  1  0.5289E-02
   ( 35,  1,  3)


 FLOW MODEL IS TRANSIENT
 FLOW MODEL CONTAINS CONSTANT-HEAD CELLS


 MAXIMUM STEPSIZE DURING WHICH ANY PARTICLE CANNOT MOVE MORE THAN ONE CELL
 =  9.963    (WHEN MIN. R.F.=1)  AT K=   1, I=   1, J=  99

 MAXIMUM STEPSIZE WHICH MEETS STABILITY CRITERION OF THE ADVECTION TERM
 (FOR PURE FINITE-DIFFERENCE OPTION, MIXELM=0) 
 =  9.706    (WHEN MIN. R.F.=1)  AT K=   1, I=   1, J=  99


 TOTAL NUMBER OF POINT SOURCES/SINKS PRESENT IN THE FLOW MODEL =       100

 MAXIMUM STEPSIZE WHICH MEETS STABILITY CRITERION OF THE SINK & SOURCE TERM
 =  122.8    (WHEN MIN. R.F.=1)  AT K=   1, I=   1, J=   1

 MAXIMUM STEPSIZE WHICH MEETS STABILITY CRITERION OF THE DISPERSION TERM
 =  2.217    (WHEN MIN. R.F.=1)  AT K=   1, I=   1, J=  99
     5 CALLS TO GCG PACKAGE FOR TRANSPORT TIME STEP  36 IN FLOW TIME STEP   1 STRESS PERIOD   9
    15 TOTAL ITERATIONS
 
 SOLVING FOR HEAD 


     2 CALLS TO PCG ROUTINE FOR TIME STEP   1 IN STRESS PERIOD    9
    21 TOTAL ITERATIONS

 MAXIMUM HEAD CHANGE FOR EACH ITERATION (1 INDICATES THE FIRST INNER ITERATION):

    HEAD CHANGE    HEAD CHANGE    HEAD CHANGE    HEAD CHANGE    HEAD CHANGE 
   LAYER,ROW,COL  LAYER,ROW,COL  LAYER,ROW,COL  LAYER,ROW,COL  LAYER,ROW,COL
 ---------------------------------------------------------------------------
  1  0.6172E-03  0  0.1742E-03  0  0.9887E-04  0  0.5716E-04  0  0.4153E-04
   ( 50,  1, 34)  ( 48,  1, 42)  ( 46,  1, 48)  ( 43,  1, 53)  ( 40,  1, 57)
  0  0.2234E-04  0 -0.1373E-04  0 -0.1005E-04  0 -0.4996E-05  0 -0.3677E-05
   ( 50,  1, 53)  (  3,  1, 61)  (  1,  1, 65)  (  1,  1, 39)  (  1,  1, 45)
  0 -0.3004E-05  0 -0.2572E-05  0 -0.2229E-05  0 -0.1480E-05  0 -0.1084E-05
   (  2,  1, 32)  (  1,  1, 36)  (  4,  1,  4)  (  4,  1, 10)  (  1,  1,  6)
  0 -0.1220E-05  0 -0.1307E-05  0 -0.1053E-05  0 -0.1020E-05  0 -0.8906E-06
   (  3,  1,  1)  (  2,  1,  4)  (  1,  1,  5)  ( 43,  1,  2)  ( 49,  1,  3)
  1  0.1406E-06
   (  2,  1, 93)

 MAXIMUM RESIDUAL FOR EACH ITERATION (1 INDICATES THE FIRST INNER ITERATION):

    RESIDUAL       RESIDUAL       RESIDUAL       RESIDUAL       RESIDUAL    
   LAYER,ROW,COL  LAYER,ROW,COL  LAYER,ROW,COL  LAYER,ROW,COL  LAYER,ROW,COL
 ---------------------------------------------------------------------------
  1   4.620      0   2.838      0  -1.601      0 -0.8575      0 -0.7410    
   ( 50,  1, 36)  ( 50,  1, 29)  ( 49,  1, 29)  ( 50,  1, 48)  ( 50,  1, 27)
  0 -0.3895      0 -0.2826      0  0.1523      0  0.8522E-01  0  0.5574E-01
   ( 49,  1, 37)  ( 49,  1, 34)  ( 50,  1, 27)  ( 49,  1, 38)  ( 49,  1, 34)
  0 -0.4676E-01  0 -0.4869E-01  0  0.4056E-01  0  0.2499E-01  0  0.1687E-01
   ( 41,  1,  2)  ( 44,  1,  2)  ( 41,  1,  2)  ( 44,  1,  2)  ( 45,  1,  2)
  0 -0.1927E-01  0  0.1916E-01  0  0.1822E-01  0  0.1582E-01  0 -0.1196E-01
   ( 44,  1,  2)  (  1,  1, 99)  ( 43,  1,  2)  ( 45,  1,  2)  (  1,  1, 99)
  1 -0.6612E-02
   (  1,  1, 99)


 FLOW MODEL IS TRANSIENT
 FLOW MODEL CONTAINS CONSTANT-HEAD CELLS


 MAXIMUM STEPSIZE DURING WHICH ANY PARTICLE CANNOT MOVE MORE THAN ONE CELL
 =  9.965    (WHEN MIN. R.F.=1)  AT K=   1, I=   1, J=  99

 MAXIMUM STEPSIZE WHICH MEETS STABILITY CRITERION OF THE ADVECTION TERM
 (FOR PURE FINITE-DIFFERENCE OPTION, MIXELM=0) 
 =  9.709    (WHEN MIN. R.F.=1)  AT K=   1, I=   1, J=  99


 TOTAL NUMBER OF POINT SOURCES/SINKS PRESENT IN THE FLOW MODEL =       100

 MAXIMUM STEPSIZE WHICH MEETS STABILITY CRITERION OF THE SINK & SOURCE TERM
 =  122.8    (WHEN MIN. R.F.=1)  AT K=   1, I=   1, J=   1

 MAXIMUM STEPSIZE WHICH MEETS STABILITY CRITERION OF THE DISPERSION TERM
 =  2.218    (WHEN MIN. R.F.=1)  AT K=   1, I=   1, J=  99
     5 CALLS TO GCG PACKAGE FOR TRANSPORT TIME STEP  37 IN FLOW TIME STEP   1 STRESS PERIOD   9
    15 TOTAL ITERATIONS
 
 SOLVING FOR HEAD 


     2 CALLS TO PCG ROUTINE FOR TIME STEP   1 IN STRESS PERIOD    9
    16 TOTAL ITERATIONS

 MAXIMUM HEAD CHANGE FOR EACH ITERATION (1 INDICATES THE FIRST INNER ITERATION):

    HEAD CHANGE    HEAD CHANGE    HEAD CHANGE    HEAD CHANGE    HEAD CHANGE 
   LAYER,ROW,COL  LAYER,ROW,COL  LAYER,ROW,COL  LAYER,ROW,COL  LAYER,ROW,COL
 ---------------------------------------------------------------------------
  1  0.6113E-03  0  0.1704E-03  0  0.9467E-04  0  0.5380E-04  0  0.3842E-04
   ( 50,  1, 34)  ( 48,  1, 42)  ( 46,  1, 48)  ( 43,  1, 53)  ( 40,  1, 57)
  0  0.2016E-04  0  0.1252E-04  0 -0.8822E-05  0 -0.4388E-05  0 -0.3229E-05
   ( 34,  1, 57)  ( 50,  1,  1)  (  1,  1, 65)  (  1,  1, 38)  (  1,  1, 44)
  0 -0.2457E-05  0 -0.2100E-05  0 -0.1822E-05  0 -0.1194E-05  0 -0.8281E-06
   (  2,  1, 32)  (  4,  1, 11)  (  5,  1,  5)  (  4,  1, 10)  (  1,  1, 13)
  1 -0.2183E-06
   (  1,  1, 90)

 MAXIMUM RESIDUAL FOR EACH ITERATION (1 INDICATES THE FIRST INNER ITERATION):

    RESIDUAL       RESIDUAL       RESIDUAL       RESIDUAL       RESIDUAL    
   LAYER,ROW,COL  LAYER,ROW,COL  LAYER,ROW,COL  LAYER,ROW,COL  LAYER,ROW,COL
 ---------------------------------------------------------------------------
  1   4.572      0   2.799      0  -1.530      0 -0.8139      0 -0.6945    
   ( 50,  1, 36)  ( 50,  1, 29)  ( 49,  1, 29)  ( 50,  1, 48)  ( 50,  1, 27)
  0 -0.3621      0 -0.2583      0  0.1369      0  0.7596E-01  0  0.4835E-01
   ( 49,  1, 37)  ( 49,  1, 34)  ( 50,  1, 27)  ( 49,  1, 38)  ( 49,  1, 33)
  0 -0.4082E-01  0 -0.4074E-01  0  0.3246E-01  0  0.2074E-01  0  0.1336E-01
   ( 41,  1,  2)  ( 44,  1,  2)  ( 41,  1,  2)  ( 44,  1,  2)  ( 46,  1,  2)
  1  0.4123E-02
   ( 49,  1, 29)


 FLOW MODEL IS TRANSIENT
 FLOW MODEL CONTAINS CONSTANT-HEAD CELLS


 MAXIMUM STEPSIZE DURING WHICH ANY PARTICLE CANNOT MOVE MORE THAN ONE CELL
 =  9.968    (WHEN MIN. R.F.=1)  AT K=   1, I=   1, J=  99

 MAXIMUM STEPSIZE WHICH MEETS STABILITY CRITERION OF THE ADVECTION TERM
 (FOR PURE FINITE-DIFFERENCE OPTION, MIXELM=0) 
 =  9.711    (WHEN MIN. R.F.=1)  AT K=   1, I=   1, J=  99


 TOTAL NUMBER OF POINT SOURCES/SINKS PRESENT IN THE FLOW MODEL =       100

 MAXIMUM STEPSIZE WHICH MEETS STABILITY CRITERION OF THE SINK & SOURCE TERM
 =  122.8    (WHEN MIN. R.F.=1)  AT K=   1, I=   1, J=   1

 MAXIMUM STEPSIZE WHICH MEETS STABILITY CRITERION OF THE DISPERSION TERM
 =  2.218    (WHEN MIN. R.F.=1)  AT K=   1, I=   1, J=  99
     5 CALLS TO GCG PACKAGE FOR TRANSPORT TIME STEP  38 IN FLOW TIME STEP   1 STRESS PERIOD   9
    15 TOTAL ITERATIONS
  MAXIMUM CONCENTRATION CHANGES FOR EACH ITERATION:
  MAX. CHANGE LAYER,ROW,COL MAX. CHANGE LAYER,ROW,COL MAX. CHANGE LAYER,ROW,COL MAX. CHANGE LAYER,ROW,COL MAX. CHANGE LAYER,ROW,COL
 ------------------------------------------------------------------------------------------------------------------------------------
   0.1568     (  1,  1, 99)  0.2402E-02 (  1,  1, 99)  0.6300E-04 (  1,  1, 99)  0.1907E-05 (  2,  1, 96)  0.8941E-07 (  2,  1, 98)
   0.1983E-02 (  1,  1, 97)  0.8479E-04 (  1,  1, 98)  0.1594E-05 (  2,  1, 96)  0.5960E-07 (  1,  1, 99)  0.8231E-04 ( 10,  1, 98)
   0.2533E-05 (  9,  1, 97)  0.8941E-07 (  8,  1, 96)  0.7704E-05 (  8,  1, 96)  0.2682E-06 (  9,  1, 97)   0.000     (  1,  1,  1)



 >>>>>>>>>>>>>>>>>>>>>>>>>>>>>>>>>>>>>>>>>>>>>>>>>>>>>>>FOR COMPONENT NO. 01<<<<<<<<<<<<<<<<<<<<<<<<<<<<<<<<<<<<<<<<<<<<<<<<<<<<<<<


                                            -------------------------------------------
                                                      TRANSPORT STEP NO.   38
                                            -------------------------------------------

 TOTAL ELAPSED TIME SINCE BEGINNING OF SIMULATION =   3287.000       D
 .....................................................................

                     CUMMULATIVE MASS BUDGETS AT END OF TRANSPORT STEP   38, TIME STEP    1, STRESS PERIOD    9
                     ------------------------------------------------------------------------------------------

                                                             IN                           OUT
                                                      ----------------             ----------------
                               CONSTANT CONCENTRATION:    3710438.                   -2194994.    
                                        CONSTANT HEAD:    0.000000                    0.000000    
                                                WELLS:    0.000000                    0.000000    
                               MASS STOR (FLOW MODEL):    147.8228                   -2802.313    
                                MASS STORAGE (SOLUTE):    1473.383                   -1514265.    
                            ---------------------------------------------------------------------------
                                              [TOTAL]:    3712059.        K          -3712061.        K

                                                          NET (IN - OUT):   -1.500000    
                                                   DISCREPANCY (PERCENT):  -0.4040883E-04

 HEAD WILL BE SAVED ON UNIT   99 AT END OF TIME STEP   1, STRESS PERIOD    9
1
  MASS BUDGET FOR ENTIRE MODEL AT END OF TIME STEP  1 IN STRESS PERIOD   9
  ------------------------------------------------------------------------------

     CUMULATIVE MASS      M       RATES FOR THIS TIME STEP      M/T
     ------------------                 ------------------------

           IN:                                      IN:
           ---                                      ---
             STORAGE =      105030.9141               STORAGE =          29.6720
       CONSTANT HEAD =    47458980.0000         CONSTANT HEAD =        7985.2920
               WELLS =    46859468.0000                 WELLS =       14256.0000
                DCDT =        2592.5430                  DCDT =       3.5213E-03

            TOTAL IN =    94426072.0000              TOTAL IN =       22270.9688

          OUT:                                     OUT:
          ----                                     ----
             STORAGE =     3997475.7500               STORAGE =          30.5266
       CONSTANT HEAD =    89220768.0000         CONSTANT HEAD =       22093.0117
               WELLS =           0.0000                 WELLS =           0.0000
                DCDT =     1209657.0000                  DCDT =         148.4535

           TOTAL OUT =    94427896.0000             TOTAL OUT =       22271.9922

            IN - OUT =       -1824.0000              IN - OUT =          -1.0234

 PERCENT DISCREPANCY =          -0.00     PERCENT DISCREPANCY =          -0.00



0


          TIME SUMMARY AT END OF TRANSPORT STEP   38 IN TIME STEP    1 IN STRESS PERIOD   9
                    SECONDS     MINUTES      HOURS       DAYS        YEARS
                    -----------------------------------------------------------
  TRANS STEP LENGTH 6.41967E+05  10699.      178.32      7.4302     2.03427E-02
   TIME STEP LENGTH 3.15360E+07 5.25600E+05  8760.0      365.00     0.99932    
 STRESS PERIOD TIME 3.15360E+07 5.25600E+05  8760.0      365.00     0.99932    
         TOTAL TIME 2.83997E+08 4.73328E+06  78888.      3287.0      8.9993    
1
